
     RDKit          2D

 24 26  0  0  0  0  0  0  0  0999 V2000
    5.2792   -2.0500    0.0000 C   0  0  0  0  0  0  0  0  0  0  0  0
    5.7917   -2.3500    0.0000 N   0  0  0  0  0  0  0  0  0  0  0  0
    5.2792   -1.4500    0.0000 N   0  0  0  0  0  0  0  0  0  0  0  0
    6.3125   -2.0500    0.0000 N   0  0  0  0  0  0  0  0  0  0  0  0
    5.7875   -4.7417    0.0000 C   0  0  0  0  0  0  0  0  0  0  0  0
    5.7875   -4.1417    0.0000 C   0  0  0  0  0  0  0  0  0  0  0  0
    6.3125   -1.4500    0.0000 C   0  0  0  0  0  0  0  0  0  0  0  0
    6.3042   -5.0417    0.0000 C   0  0  0  0  0  0  0  0  0  0  0  0
    5.7917   -1.1500    0.0000 C   0  0  0  0  0  0  0  0  0  0  0  0
    5.7917   -2.9500    0.0000 C   0  0  0  0  0  0  0  0  0  0  0  0
    5.2667   -3.8417    0.0000 C   0  0  0  0  0  0  0  0  0  0  0  0
    5.2667   -3.2417    0.0000 C   0  0  0  0  0  0  0  0  0  0  0  0
    6.3042   -3.8417    0.0000 C   0  0  0  0  0  0  0  0  0  0  0  0
    4.7542   -2.3417    0.0000 O   0  0  0  0  0  0  0  0  0  0  0  0
    6.3042   -5.6417    0.0000 C   0  0  0  0  0  0  0  0  0  0  0  0
    5.2667   -5.0417    0.0000 O   0  0  0  0  0  0  0  0  0  0  0  0
    6.3042   -3.2417    0.0000 C   0  0  0  0  0  0  0  0  0  0  0  0
    5.7917   -0.5500    0.0000 O   0  0  0  0  0  0  0  0  0  0  0  0
    5.7792   -5.9417    0.0000 Cl  0  0  0  0  0  0  0  0  0  0  0  0
    6.8167   -4.7417    0.0000 C   0  0  0  0  0  0  0  0  0  0  0  0
    4.7417   -4.1417    0.0000 C   0  0  0  0  0  0  0  0  0  0  0  0
    6.8250   -5.9417    0.0000 C   0  0  0  0  0  0  0  0  0  0  0  0
    7.3417   -5.0417    0.0000 C   0  0  0  0  0  0  0  0  0  0  0  0
    7.3417   -5.6417    0.0000 C   0  0  0  0  0  0  0  0  0  0  0  0
  2  1  1  0
  3  1  1  0
  4  2  1  0
  5  6  1  0
  6 13  1  0
  7  9  1  0
  8  5  1  0
  9  3  1  0
 10  2  1  0
 11 12  1  0
 12 10  2  0
 13 17  2  0
 14  1  2  0
 15  8  2  0
 16  5  2  0
 17 10  1  0
 18  9  2  0
 19 15  1  0
 20  8  1  0
 21 11  1  0
 22 15  1  0
 23 20  2  0
 24 23  1  0
  4  7  2  0
 11  6  2  0
 22 24  2  0
M  END

> <chembl_id>
CHEMBL6329

> <chembl_pref_name>
None

$$$$

     RDKit          2D

 25 27  0  0  0  0  0  0  0  0999 V2000
    5.2792   -2.0500    0.0000 C   0  0  0  0  0  0  0  0  0  0  0  0
    5.7917   -2.3500    0.0000 N   0  0  0  0  0  0  0  0  0  0  0  0
    5.2792   -1.4500    0.0000 N   0  0  0  0  0  0  0  0  0  0  0  0
    6.3125   -2.0500    0.0000 N   0  0  0  0  0  0  0  0  0  0  0  0
    6.3125   -1.4500    0.0000 C   0  0  0  0  0  0  0  0  0  0  0  0
    5.7875   -4.1417    0.0000 C   0  0  0  0  0  0  0  0  0  0  0  0
    5.7917   -1.1500    0.0000 C   0  0  0  0  0  0  0  0  0  0  0  0
    5.7917   -2.9500    0.0000 C   0  0  0  0  0  0  0  0  0  0  0  0
    5.7875   -4.7417    0.0000 C   0  0  0  0  0  0  0  0  0  0  0  0
    5.2667   -3.8417    0.0000 C   0  0  0  0  0  0  0  0  0  0  0  0
    8.3792   -6.2417    0.0000 N   0  0  0  0  0  0  0  0  0  0  0  0
    5.2667   -3.2417    0.0000 C   0  0  0  0  0  0  0  0  0  0  0  0
    6.3042   -3.8417    0.0000 C   0  0  0  0  0  0  0  0  0  0  0  0
    7.8625   -5.9417    0.0000 C   0  0  0  0  0  0  0  0  0  0  0  0
    4.7542   -2.3417    0.0000 O   0  0  0  0  0  0  0  0  0  0  0  0
    6.3042   -5.0417    0.0000 C   0  0  0  0  0  0  0  0  0  0  0  0
    6.3042   -3.2417    0.0000 C   0  0  0  0  0  0  0  0  0  0  0  0
    5.2667   -5.0417    0.0000 O   0  0  0  0  0  0  0  0  0  0  0  0
    5.7917   -0.5500    0.0000 O   0  0  0  0  0  0  0  0  0  0  0  0
    6.3042   -5.6417    0.0000 C   0  0  0  0  0  0  0  0  0  0  0  0
    6.8167   -4.7417    0.0000 C   0  0  0  0  0  0  0  0  0  0  0  0
    7.3417   -5.6417    0.0000 C   0  0  0  0  0  0  0  0  0  0  0  0
    7.3417   -5.0417    0.0000 C   0  0  0  0  0  0  0  0  0  0  0  0
    6.8250   -5.9417    0.0000 C   0  0  0  0  0  0  0  0  0  0  0  0
    4.7417   -4.1417    0.0000 C   0  0  0  0  0  0  0  0  0  0  0  0
  2  1  1  0
  3  1  1  0
  4  2  1  0
  5  7  1  0
  6 13  1  0
  7  3  1  0
  8  2  1  0
  9  6  1  0
 10 12  1  0
 11 14  3  0
 12  8  2  0
 13 17  2  0
 14 22  1  0
 15  1  2  0
 16  9  1  0
 17  8  1  0
 18  9  2  0
 19  7  2  0
 20 16  2  0
 21 16  1  0
 22 23  1  0
 23 21  2  0
 24 20  1  0
 25 10  1  0
  4  5  2  0
 10  6  2  0
 24 22  2  0
M  END

> <chembl_id>
CHEMBL6328

> <chembl_pref_name>
None

$$$$

     RDKit          2D

 25 27  0  0  0  0  0  0  0  0999 V2000
    3.8042   -1.6000    0.0000 C   0  0  0  0  0  0  0  0  0  0  0  0
    4.3167   -1.9000    0.0000 N   0  0  0  0  0  0  0  0  0  0  0  0
    3.8042   -1.0000    0.0000 N   0  0  0  0  0  0  0  0  0  0  0  0
    4.8417   -1.6000    0.0000 N   0  0  0  0  0  0  0  0  0  0  0  0
    4.3167   -2.5000    0.0000 C   0  0  0  0  0  0  0  0  0  0  0  0
    4.3167   -3.6917    0.0000 C   0  0  0  0  0  0  0  0  0  0  0  0
    4.8417   -1.0000    0.0000 C   0  0  0  0  0  0  0  0  0  0  0  0
    4.3167   -0.7000    0.0000 C   0  0  0  0  0  0  0  0  0  0  0  0
    3.7917   -3.3917    0.0000 C   0  0  0  0  0  0  0  0  0  0  0  0
    4.8375   -3.3917    0.0000 C   0  0  0  0  0  0  0  0  0  0  0  0
    3.8000   -2.7917    0.0000 C   0  0  0  0  0  0  0  0  0  0  0  0
    4.8375   -2.7917    0.0000 C   0  0  0  0  0  0  0  0  0  0  0  0
    4.3167   -4.2917    0.0000 C   0  0  0  0  0  0  0  0  0  0  0  0
    3.2875   -1.8917    0.0000 O   0  0  0  0  0  0  0  0  0  0  0  0
    4.8375   -4.5917    0.0000 C   0  0  0  0  0  0  0  0  0  0  0  0
    4.3167   -0.0917    0.0000 O   0  0  0  0  0  0  0  0  0  0  0  0
    4.8292   -5.1917    0.0000 C   0  0  0  0  0  0  0  0  0  0  0  0
    5.3500   -4.2917    0.0000 C   0  0  0  0  0  0  0  0  0  0  0  0
    5.8667   -5.1917    0.0000 C   0  0  0  0  0  0  0  0  0  0  0  0
    3.7917   -4.5917    0.0000 O   0  0  0  0  0  0  0  0  0  0  0  0
    5.8667   -4.5917    0.0000 C   0  0  0  0  0  0  0  0  0  0  0  0
    5.3542   -5.4917    0.0000 C   0  0  0  0  0  0  0  0  0  0  0  0
    6.3917   -5.4917    0.0000 Cl  0  0  0  0  0  0  0  0  0  0  0  0
    3.2750   -3.6917    0.0000 C   0  0  0  0  0  0  0  0  0  0  0  0
    5.3542   -3.6917    0.0000 C   0  0  0  0  0  0  0  0  0  0  0  0
  2  1  1  0
  3  1  1  0
  4  2  1  0
  5  2  1  0
  6 10  1  0
  7  8  1  0
  8  3  1  0
  9 11  1  0
 10 12  2  0
 11  5  2  0
 12  5  1  0
 13  6  1  0
 14  1  2  0
 15 13  1  0
 16  8  2  0
 17 15  2  0
 18 15  1  0
 19 21  1  0
 20 13  1  0
 21 18  2  0
 22 17  1  0
 23 19  1  0
 24  9  1  0
 25 10  1  0
  4  7  2  0
  9  6  2  0
 22 19  2  0
M  END

> <chembl_id>
CHEMBL265667

> <chembl_pref_name>
None

$$$$

     RDKit          2D

 23 25  0  0  0  0  0  0  0  0999 V2000
    6.3417   -2.4250    0.0000 C   0  0  0  0  0  0  0  0  0  0  0  0
    6.8542   -2.7250    0.0000 N   0  0  0  0  0  0  0  0  0  0  0  0
    6.3417   -1.8250    0.0000 N   0  0  0  0  0  0  0  0  0  0  0  0
    7.3750   -2.4250    0.0000 N   0  0  0  0  0  0  0  0  0  0  0  0
    7.3750   -1.8250    0.0000 C   0  0  0  0  0  0  0  0  0  0  0  0
    6.8542   -1.5250    0.0000 C   0  0  0  0  0  0  0  0  0  0  0  0
    6.8500   -5.1167    0.0000 C   0  0  0  0  0  0  0  0  0  0  0  0
    6.8542   -3.3250    0.0000 C   0  0  0  0  0  0  0  0  0  0  0  0
    5.8167   -2.7167    0.0000 O   0  0  0  0  0  0  0  0  0  0  0  0
    6.8500   -4.5167    0.0000 C   0  0  0  0  0  0  0  0  0  0  0  0
    7.3667   -5.4167    0.0000 C   0  0  0  0  0  0  0  0  0  0  0  0
    6.8542   -0.9250    0.0000 O   0  0  0  0  0  0  0  0  0  0  0  0
    6.3292   -5.4167    0.0000 O   0  0  0  0  0  0  0  0  0  0  0  0
    7.3667   -3.6167    0.0000 C   0  0  0  0  0  0  0  0  0  0  0  0
    6.3292   -3.6167    0.0000 C   0  0  0  0  0  0  0  0  0  0  0  0
    6.3292   -4.2167    0.0000 C   0  0  0  0  0  0  0  0  0  0  0  0
    7.3667   -4.2167    0.0000 C   0  0  0  0  0  0  0  0  0  0  0  0
    7.3667   -6.0167    0.0000 C   0  0  0  0  0  0  0  0  0  0  0  0
    7.8792   -5.1167    0.0000 C   0  0  0  0  0  0  0  0  0  0  0  0
    8.4042   -5.4167    0.0000 C   0  0  0  0  0  0  0  0  0  0  0  0
    7.8875   -6.3167    0.0000 C   0  0  0  0  0  0  0  0  0  0  0  0
    8.4042   -6.0167    0.0000 C   0  0  0  0  0  0  0  0  0  0  0  0
    8.9250   -6.3167    0.0000 C   0  0  0  0  0  0  0  0  0  0  0  0
  2  1  1  0
  3  1  1  0
  4  2  1  0
  5  6  1  0
  6  3  1  0
  7 10  1  0
  8  2  1  0
  9  1  2  0
 10 16  2  0
 11  7  1  0
 12  6  2  0
 13  7  2  0
 14  8  1  0
 15  8  2  0
 16 15  1  0
 17 14  2  0
 18 11  2  0
 19 11  1  0
 20 19  2  0
 21 18  1  0
 22 20  1  0
 23 22  1  0
  4  5  2  0
 10 17  1  0
 21 22  2  0
M  END

> <chembl_id>
CHEMBL6362

> <chembl_pref_name>
None

$$$$

     RDKit          2D

 24 26  0  0  0  0  0  0  0  0999 V2000
    5.2792   -2.0500    0.0000 C   0  0  0  0  0  0  0  0  0  0  0  0
    5.7917   -2.3500    0.0000 N   0  0  0  0  0  0  0  0  0  0  0  0
    5.2792   -1.4500    0.0000 N   0  0  0  0  0  0  0  0  0  0  0  0
    6.3125   -2.0500    0.0000 N   0  0  0  0  0  0  0  0  0  0  0  0
    6.3125   -1.4500    0.0000 C   0  0  0  0  0  0  0  0  0  0  0  0
    5.7875   -4.1417    0.0000 C   0  0  0  0  0  0  0  0  0  0  0  0
    5.7917   -1.1500    0.0000 C   0  0  0  0  0  0  0  0  0  0  0  0
    5.7917   -2.9500    0.0000 C   0  0  0  0  0  0  0  0  0  0  0  0
    5.7875   -4.7417    0.0000 C   0  0  0  0  0  0  0  0  0  0  0  0
    5.2667   -3.8417    0.0000 C   0  0  0  0  0  0  0  0  0  0  0  0
    5.2667   -3.2417    0.0000 C   0  0  0  0  0  0  0  0  0  0  0  0
    6.3042   -3.8417    0.0000 C   0  0  0  0  0  0  0  0  0  0  0  0
    4.7542   -2.3417    0.0000 O   0  0  0  0  0  0  0  0  0  0  0  0
    6.3042   -5.0417    0.0000 C   0  0  0  0  0  0  0  0  0  0  0  0
    6.3042   -3.2417    0.0000 C   0  0  0  0  0  0  0  0  0  0  0  0
    5.2667   -5.0417    0.0000 O   0  0  0  0  0  0  0  0  0  0  0  0
    5.7917   -0.5500    0.0000 O   0  0  0  0  0  0  0  0  0  0  0  0
    6.3042   -5.6417    0.0000 C   0  0  0  0  0  0  0  0  0  0  0  0
    6.8167   -4.7417    0.0000 C   0  0  0  0  0  0  0  0  0  0  0  0
    7.3417   -5.6417    0.0000 C   0  0  0  0  0  0  0  0  0  0  0  0
    7.3417   -5.0417    0.0000 C   0  0  0  0  0  0  0  0  0  0  0  0
    6.8250   -5.9417    0.0000 C   0  0  0  0  0  0  0  0  0  0  0  0
    7.8625   -5.9417    0.0000 Cl  0  0  0  0  0  0  0  0  0  0  0  0
    4.7417   -4.1417    0.0000 C   0  0  0  0  0  0  0  0  0  0  0  0
  2  1  1  0
  3  1  1  0
  4  2  1  0
  5  7  1  0
  6 12  1  0
  7  3  1  0
  8  2  1  0
  9  6  1  0
 10 11  1  0
 11  8  2  0
 12 15  2  0
 13  1  2  0
 14  9  1  0
 15  8  1  0
 16  9  2  0
 17  7  2  0
 18 14  2  0
 19 14  1  0
 20 21  1  0
 21 19  2  0
 22 18  1  0
 23 20  1  0
 24 10  1  0
  4  5  2  0
 10  6  2  0
 22 20  2  0
M  END

> <chembl_id>
CHEMBL267864

> <chembl_pref_name>
None

$$$$

     RDKit          2D

 23 25  0  0  0  0  0  0  0  0999 V2000
    5.2792   -2.0500    0.0000 C   0  0  0  0  0  0  0  0  0  0  0  0
    5.7917   -2.3500    0.0000 N   0  0  0  0  0  0  0  0  0  0  0  0
    5.2792   -1.4500    0.0000 N   0  0  0  0  0  0  0  0  0  0  0  0
    6.3125   -2.0500    0.0000 N   0  0  0  0  0  0  0  0  0  0  0  0
    6.3125   -1.4500    0.0000 C   0  0  0  0  0  0  0  0  0  0  0  0
    5.7875   -4.1417    0.0000 C   0  0  0  0  0  0  0  0  0  0  0  0
    5.7917   -1.1500    0.0000 C   0  0  0  0  0  0  0  0  0  0  0  0
    5.7917   -2.9500    0.0000 C   0  0  0  0  0  0  0  0  0  0  0  0
    5.7875   -4.7417    0.0000 C   0  0  0  0  0  0  0  0  0  0  0  0
    5.2667   -3.8417    0.0000 C   0  0  0  0  0  0  0  0  0  0  0  0
    5.2667   -3.2417    0.0000 C   0  0  0  0  0  0  0  0  0  0  0  0
    6.3042   -3.8417    0.0000 C   0  0  0  0  0  0  0  0  0  0  0  0
    4.7542   -2.3417    0.0000 O   0  0  0  0  0  0  0  0  0  0  0  0
    6.3042   -3.2417    0.0000 C   0  0  0  0  0  0  0  0  0  0  0  0
    5.2667   -5.0417    0.0000 O   0  0  0  0  0  0  0  0  0  0  0  0
    6.3042   -5.0417    0.0000 C   0  0  0  0  0  0  0  0  0  0  0  0
    5.7917   -0.5500    0.0000 O   0  0  0  0  0  0  0  0  0  0  0  0
    4.7417   -4.1417    0.0000 C   0  0  0  0  0  0  0  0  0  0  0  0
    6.8167   -4.7417    0.0000 C   0  0  0  0  0  0  0  0  0  0  0  0
    6.3042   -5.6417    0.0000 C   0  0  0  0  0  0  0  0  0  0  0  0
    6.8250   -5.9417    0.0000 C   0  0  0  0  0  0  0  0  0  0  0  0
    7.3417   -5.0417    0.0000 C   0  0  0  0  0  0  0  0  0  0  0  0
    7.3417   -5.6417    0.0000 C   0  0  0  0  0  0  0  0  0  0  0  0
  2  1  1  0
  3  1  1  0
  4  2  1  0
  5  7  1  0
  6 12  1  0
  7  3  1  0
  8  2  1  0
  9  6  1  0
 10 11  1  0
 11  8  2  0
 12 14  2  0
 13  1  2  0
 14  8  1  0
 15  9  2  0
 16  9  1  0
 17  7  2  0
 18 10  1  0
 19 16  1  0
 20 16  2  0
 21 20  1  0
 22 19  2  0
 23 21  2  0
  4  5  2  0
 10  6  2  0
 22 23  1  0
M  END

> <chembl_id>
CHEMBL6363

> <chembl_pref_name>
None

$$$$

     RDKit          2D

 25 27  0  0  0  0  0  0  0  0999 V2000
    2.3667   -2.7667    0.0000 C   0  0  0  0  0  0  0  0  0  0  0  0
    2.8792   -3.0667    0.0000 N   0  0  0  0  0  0  0  0  0  0  0  0
    2.3667   -2.1667    0.0000 N   0  0  0  0  0  0  0  0  0  0  0  0
    3.4042   -2.7667    0.0000 N   0  0  0  0  0  0  0  0  0  0  0  0
    2.8792   -5.4667    0.0000 C   0  0  0  0  0  0  0  0  0  0  0  0
    2.8792   -4.8667    0.0000 C   0  0  0  0  0  0  0  0  0  0  0  0
    3.4000   -5.7667    0.0000 C   0  0  0  0  0  0  0  0  0  0  0  0
    3.4042   -2.1667    0.0000 C   0  0  0  0  0  0  0  0  0  0  0  0
    2.8792   -3.6667    0.0000 C   0  0  0  0  0  0  0  0  0  0  0  0
    2.8792   -1.8667    0.0000 C   0  0  0  0  0  0  0  0  0  0  0  0
    2.3542   -4.5625    0.0000 C   0  0  0  0  0  0  0  0  0  0  0  0
    2.3625   -3.9667    0.0000 C   0  0  0  0  0  0  0  0  0  0  0  0
    3.3917   -6.3667    0.0000 C   0  0  0  0  0  0  0  0  0  0  0  0
    3.4000   -4.5625    0.0000 C   0  0  0  0  0  0  0  0  0  0  0  0
    3.9125   -5.4667    0.0000 C   0  0  0  0  0  0  0  0  0  0  0  0
    1.8500   -3.0667    0.0000 O   0  0  0  0  0  0  0  0  0  0  0  0
    2.3542   -5.7667    0.0000 O   0  0  0  0  0  0  0  0  0  0  0  0
    3.4000   -3.9667    0.0000 C   0  0  0  0  0  0  0  0  0  0  0  0
    3.9167   -6.6667    0.0000 C   0  0  0  0  0  0  0  0  0  0  0  0
    2.8792   -1.2667    0.0000 O   0  0  0  0  0  0  0  0  0  0  0  0
    1.8292   -4.8625    0.0000 Cl  0  0  0  0  0  0  0  0  0  0  0  0
    4.4292   -6.3667    0.0000 C   0  0  0  0  0  0  0  0  0  0  0  0
    4.4292   -5.7625    0.0000 C   0  0  0  0  0  0  0  0  0  0  0  0
    4.9542   -6.6667    0.0000 Br  0  0  0  0  0  0  0  0  0  0  0  0
    2.8750   -6.6625    0.0000 C   0  0  0  0  0  0  0  0  0  0  0  0
  2  1  1  0
  3  1  1  0
  4  2  1  0
  5  6  1  0
  6 14  1  0
  7  5  1  0
  8 10  1  0
  9  2  1  0
 10  3  1  0
 11 12  1  0
 12  9  2  0
 13  7  2  0
 14 18  2  0
 15  7  1  0
 16  1  2  0
 17  5  2  0
 18  9  1  0
 19 13  1  0
 20 10  2  0
 21 11  1  0
 22 23  1  0
 23 15  2  0
 24 22  1  0
 25 13  1  0
  4  8  2  0
 11  6  2  0
 19 22  2  0
M  END

> <chembl_id>
CHEMBL6352

> <chembl_pref_name>
None

$$$$

     RDKit          2D

 25 27  0  0  0  0  0  0  0  0999 V2000
    5.2792   -2.0500    0.0000 C   0  0  0  0  0  0  0  0  0  0  0  0
    5.7917   -2.3500    0.0000 N   0  0  0  0  0  0  0  0  0  0  0  0
    5.2792   -1.4500    0.0000 N   0  0  0  0  0  0  0  0  0  0  0  0
    6.3125   -2.0500    0.0000 N   0  0  0  0  0  0  0  0  0  0  0  0
    5.7875   -4.7417    0.0000 C   0  0  0  0  0  0  0  0  0  0  0  0
    5.7875   -4.1417    0.0000 C   0  0  0  0  0  0  0  0  0  0  0  0
    6.3042   -5.0417    0.0000 C   0  0  0  0  0  0  0  0  0  0  0  0
    6.3125   -1.4500    0.0000 C   0  0  0  0  0  0  0  0  0  0  0  0
    5.7917   -2.9500    0.0000 C   0  0  0  0  0  0  0  0  0  0  0  0
    5.7917   -1.1500    0.0000 C   0  0  0  0  0  0  0  0  0  0  0  0
    5.2667   -3.8417    0.0000 C   0  0  0  0  0  0  0  0  0  0  0  0
    6.3042   -5.6417    0.0000 C   0  0  0  0  0  0  0  0  0  0  0  0
    5.2667   -3.2417    0.0000 C   0  0  0  0  0  0  0  0  0  0  0  0
    6.3042   -3.8417    0.0000 C   0  0  0  0  0  0  0  0  0  0  0  0
    6.8167   -4.7417    0.0000 C   0  0  0  0  0  0  0  0  0  0  0  0
    6.8250   -5.9417    0.0000 C   0  0  0  0  0  0  0  0  0  0  0  0
    4.7542   -2.3417    0.0000 O   0  0  0  0  0  0  0  0  0  0  0  0
    5.2667   -5.0417    0.0000 O   0  0  0  0  0  0  0  0  0  0  0  0
    6.3042   -3.2417    0.0000 C   0  0  0  0  0  0  0  0  0  0  0  0
    5.7917   -0.5500    0.0000 O   0  0  0  0  0  0  0  0  0  0  0  0
    7.3417   -5.6417    0.0000 C   0  0  0  0  0  0  0  0  0  0  0  0
    4.7417   -4.1417    0.0000 Cl  0  0  0  0  0  0  0  0  0  0  0  0
    5.7792   -5.9417    0.0000 Cl  0  0  0  0  0  0  0  0  0  0  0  0
    7.3417   -5.0417    0.0000 C   0  0  0  0  0  0  0  0  0  0  0  0
    7.8625   -5.9417    0.0000 Cl  0  0  0  0  0  0  0  0  0  0  0  0
  2  1  1  0
  3  1  1  0
  4  2  1  0
  5  6  1  0
  6 14  1  0
  7  5  1  0
  8 10  1  0
  9  2  1  0
 10  3  1  0
 11 13  1  0
 12  7  2  0
 13  9  2  0
 14 19  2  0
 15  7  1  0
 16 12  1  0
 17  1  2  0
 18  5  2  0
 19  9  1  0
 20 10  2  0
 21 24  1  0
 22 11  1  0
 23 12  1  0
 24 15  2  0
 25 21  1  0
  4  8  2  0
 11  6  2  0
 16 21  2  0
M  END

> <chembl_id>
CHEMBL268097

> <chembl_pref_name>
None

$$$$

     RDKit          2D

 27 29  0  0  0  0  0  0  0  0999 V2000
    5.2792   -2.0500    0.0000 C   0  0  0  0  0  0  0  0  0  0  0  0
    5.7917   -2.3500    0.0000 N   0  0  0  0  0  0  0  0  0  0  0  0
    5.2792   -1.4500    0.0000 N   0  0  0  0  0  0  0  0  0  0  0  0
    6.3125   -2.0500    0.0000 N   0  0  0  0  0  0  0  0  0  0  0  0
    7.8625   -5.9417    0.0000 S   0  0  0  0  0  0  0  0  0  0  0  0
    5.7875   -4.1417    0.0000 C   0  0  0  0  0  0  0  0  0  0  0  0
    6.3125   -1.4500    0.0000 C   0  0  0  0  0  0  0  0  0  0  0  0
    5.7917   -2.9500    0.0000 C   0  0  0  0  0  0  0  0  0  0  0  0
    5.7917   -1.1500    0.0000 C   0  0  0  0  0  0  0  0  0  0  0  0
    5.7875   -4.7417    0.0000 C   0  0  0  0  0  0  0  0  0  0  0  0
    5.2667   -3.8417    0.0000 C   0  0  0  0  0  0  0  0  0  0  0  0
    5.2667   -3.2417    0.0000 C   0  0  0  0  0  0  0  0  0  0  0  0
    6.3042   -3.8417    0.0000 C   0  0  0  0  0  0  0  0  0  0  0  0
    7.3417   -5.6417    0.0000 C   0  0  0  0  0  0  0  0  0  0  0  0
    4.7542   -2.3417    0.0000 O   0  0  0  0  0  0  0  0  0  0  0  0
    6.3042   -5.0417    0.0000 C   0  0  0  0  0  0  0  0  0  0  0  0
    8.4000   -5.4625    0.0000 O   0  0  0  0  0  0  0  0  0  0  0  0
    8.3792   -6.2417    0.0000 O   0  0  0  0  0  0  0  0  0  0  0  0
    6.3042   -3.2417    0.0000 C   0  0  0  0  0  0  0  0  0  0  0  0
    5.2667   -5.0417    0.0000 O   0  0  0  0  0  0  0  0  0  0  0  0
    5.7917   -0.5500    0.0000 O   0  0  0  0  0  0  0  0  0  0  0  0
    7.3417   -5.0417    0.0000 C   0  0  0  0  0  0  0  0  0  0  0  0
    6.8250   -5.9417    0.0000 C   0  0  0  0  0  0  0  0  0  0  0  0
    6.8167   -4.7417    0.0000 C   0  0  0  0  0  0  0  0  0  0  0  0
    6.3042   -5.6417    0.0000 C   0  0  0  0  0  0  0  0  0  0  0  0
    4.7417   -4.1417    0.0000 Cl  0  0  0  0  0  0  0  0  0  0  0  0
    7.8625   -6.5417    0.0000 C   0  0  0  0  0  0  0  0  0  0  0  0
  2  1  1  0
  3  1  1  0
  4  2  1  0
  5 14  1  0
  6 13  1  0
  7  9  1  0
  8  2  1  0
  9  3  1  0
 10  6  1  0
 11 12  1  0
 12  8  2  0
 13 19  2  0
 14 23  2  0
 15  1  2  0
 16 10  1  0
 17  5  2  0
 18  5  2  0
 19  8  1  0
 20 10  2  0
 21  9  2  0
 22 24  2  0
 23 25  1  0
 24 16  1  0
 25 16  2  0
 26 11  1  0
 27  5  1  0
  4  7  2  0
 11  6  2  0
 22 14  1  0
M  END

> <chembl_id>
CHEMBL266457

> <chembl_pref_name>
None

$$$$

     RDKit          2D

 46 52  0  0  0  0  0  0  0  0999 V2000
   -4.2208   -2.2292    0.0000 N   0  0  0  0  0  0  0  0  0  0  0  0
    3.7250   -2.2542    0.0000 N   0  0  0  0  0  0  0  0  0  0  0  0
   -4.9333   -1.8167    0.0000 C   0  0  0  0  0  0  0  0  0  0  0  0
    4.4417   -1.8417    0.0000 C   0  0  0  0  0  0  0  0  0  0  0  0
    4.4417   -1.0167    0.0000 C   0  0  0  0  0  0  0  0  0  0  0  0
   -4.9375   -0.9917    0.0000 C   0  0  0  0  0  0  0  0  0  0  0  0
   -4.2208   -3.0542    0.0000 C   0  0  0  0  0  0  0  0  0  0  0  0
    3.7292   -3.0792    0.0000 C   0  0  0  0  0  0  0  0  0  0  0  0
    3.7250   -0.6042    0.0000 C   0  0  0  0  0  0  0  0  0  0  0  0
   -4.2208   -0.5750    0.0000 C   0  0  0  0  0  0  0  0  0  0  0  0
    3.0125   -1.8417    0.0000 C   0  0  0  0  0  0  0  0  0  0  0  0
   -3.5083   -1.8167    0.0000 C   0  0  0  0  0  0  0  0  0  0  0  0
   -2.0833   -3.4625    0.0000 C   0  0  0  0  0  0  0  0  0  0  0  0
    1.5917   -3.5000    0.0000 C   0  0  0  0  0  0  0  0  0  0  0  0
   -3.5083   -0.9875    0.0000 C   0  0  0  0  0  0  0  0  0  0  0  0
    3.0125   -1.0167    0.0000 C   0  0  0  0  0  0  0  0  0  0  0  0
   -4.2250    0.2500    0.0000 N   0  0  0  0  0  0  0  0  0  0  0  0
    3.7417    0.2708    0.0000 N   0  0  0  0  0  0  0  0  0  0  0  0
    2.3000   -3.0875    0.0000 C   0  0  0  0  0  0  0  0  0  0  0  0
   -2.7958   -3.0542    0.0000 C   0  0  0  0  0  0  0  0  0  0  0  0
   -3.5083   -3.4667    0.0000 C   0  0  0  0  0  0  0  0  0  0  0  0
    3.0167   -3.5000    0.0000 C   0  0  0  0  0  0  0  0  0  0  0  0
   -5.6583   -0.5792    0.0000 C   0  0  0  0  0  0  0  0  0  0  0  0
    5.1500   -0.6000    0.0000 C   0  0  0  0  0  0  0  0  0  0  0  0
    5.1542   -2.2542    0.0000 C   0  0  0  0  0  0  0  0  0  0  0  0
   -5.6458   -2.2292    0.0000 C   0  0  0  0  0  0  0  0  0  0  0  0
    1.5917   -4.3167    0.0000 C   0  0  0  0  0  0  0  0  0  0  0  0
   -2.0750   -4.2917    0.0000 C   0  0  0  0  0  0  0  0  0  0  0  0
    2.3042   -4.7292    0.0000 C   0  0  0  0  0  0  0  0  0  0  0  0
   -2.7958   -4.7042    0.0000 C   0  0  0  0  0  0  0  0  0  0  0  0
    2.9167    0.2708    0.0000 C   0  0  0  0  0  0  0  0  0  0  0  0
   -3.5083    0.6625    0.0000 C   0  0  0  0  0  0  0  0  0  0  0  0
    3.0125   -4.3167    0.0000 C   0  0  0  0  0  0  0  0  0  0  0  0
   -3.5083   -4.2917    0.0000 C   0  0  0  0  0  0  0  0  0  0  0  0
    5.8667   -1.0042    0.0000 C   0  0  0  0  0  0  0  0  0  0  0  0
   -6.3542   -0.9917    0.0000 C   0  0  0  0  0  0  0  0  0  0  0  0
   -6.3542   -1.8250    0.0000 C   0  0  0  0  0  0  0  0  0  0  0  0
    5.8667   -1.8375    0.0000 C   0  0  0  0  0  0  0  0  0  0  0  0
    2.2042    0.6833    0.0000 C   0  0  0  0  0  0  0  0  0  0  0  0
   -2.7958    0.2583    0.0000 C   0  0  0  0  0  0  0  0  0  0  0  0
   -0.6583    0.6708    0.0000 C   0  0  0  0  0  0  0  0  0  0  0  0
    0.0625    0.2625    0.0000 C   0  0  0  0  0  0  0  0  0  0  0  0
    0.7750    0.6750    0.0000 C   0  0  0  0  0  0  0  0  0  0  0  0
    1.4917    0.2708    0.0000 C   0  0  0  0  0  0  0  0  0  0  0  0
   -2.0833    0.6708    0.0000 C   0  0  0  0  0  0  0  0  0  0  0  0
   -1.3708    0.2583    0.0000 C   0  0  0  0  0  0  0  0  0  0  0  0
  2  8  1  0
  3  1  1  0
  4  2  2  0
  5  4  1  0
  6  3  1  0
  7  1  1  0
  8 22  1  0
  9 16  1  0
 10 15  2  0
 11  2  1  0
 12  1  2  0
 13 20  2  0
 14 13  1  0
 15 12  1  0
 16 11  2  0
 17 10  1  0
 18  9  1  0
 19 14  2  0
 20 21  1  0
 21  7  1  0
 22 19  1  0
 23  6  2  0
 24  5  1  0
 25  4  1  0
 26  3  2  0
 27 14  1  0
 28 30  2  0
 29 27  2  0
 30 34  1  0
 31 39  1  0
 32 17  1  0
 33 29  1  0
 34 21  2  0
 35 38  1  0
 36 37  2  0
 37 26  1  0
 38 25  2  0
 39 44  1  0
 40 32  1  0
 41 46  1  0
 42 41  1  0
 43 42  1  0
 44 43  1  0
 45 40  1  0
 46 45  1  0
  6 10  1  0
 36 23  1  0
 13 28  1  0
 22 33  2  0
  9  5  2  0
 24 35  2  0
 31 18  1  0
M  CHG  2   1   1   2   1
M  END

> <chembl_id>
CHEMBL268556

> <chembl_pref_name>
None

$$$$

     RDKit          2D

 25 27  0  0  0  0  0  0  0  0999 V2000
    6.3417   -2.4250    0.0000 C   0  0  0  0  0  0  0  0  0  0  0  0
    6.8542   -2.7250    0.0000 N   0  0  0  0  0  0  0  0  0  0  0  0
    6.3417   -1.8250    0.0000 N   0  0  0  0  0  0  0  0  0  0  0  0
    7.3750   -2.4250    0.0000 N   0  0  0  0  0  0  0  0  0  0  0  0
    6.8500   -4.5167    0.0000 C   0  0  0  0  0  0  0  0  0  0  0  0
    7.3750   -1.8250    0.0000 C   0  0  0  0  0  0  0  0  0  0  0  0
    6.8542   -3.3250    0.0000 C   0  0  0  0  0  0  0  0  0  0  0  0
    6.8542   -1.5250    0.0000 C   0  0  0  0  0  0  0  0  0  0  0  0
    6.8500   -5.1167    0.0000 C   0  0  0  0  0  0  0  0  0  0  0  0
    6.3292   -4.2167    0.0000 C   0  0  0  0  0  0  0  0  0  0  0  0
    6.3292   -3.6167    0.0000 C   0  0  0  0  0  0  0  0  0  0  0  0
    7.3667   -4.2167    0.0000 C   0  0  0  0  0  0  0  0  0  0  0  0
    5.8167   -2.7167    0.0000 O   0  0  0  0  0  0  0  0  0  0  0  0
    7.3667   -5.4167    0.0000 C   0  0  0  0  0  0  0  0  0  0  0  0
    7.3667   -3.6167    0.0000 C   0  0  0  0  0  0  0  0  0  0  0  0
    6.3292   -5.4167    0.0000 O   0  0  0  0  0  0  0  0  0  0  0  0
    6.8542   -0.9250    0.0000 O   0  0  0  0  0  0  0  0  0  0  0  0
    7.3667   -6.0167    0.0000 C   0  0  0  0  0  0  0  0  0  0  0  0
    7.8792   -5.1167    0.0000 C   0  0  0  0  0  0  0  0  0  0  0  0
    5.8042   -4.5167    0.0000 Cl  0  0  0  0  0  0  0  0  0  0  0  0
    8.4042   -6.0167    0.0000 C   0  0  0  0  0  0  0  0  0  0  0  0
    8.9250   -6.3167    0.0000 S   0  0  0  0  0  0  0  0  0  0  0  0
    8.4042   -5.4167    0.0000 C   0  0  0  0  0  0  0  0  0  0  0  0
    7.8875   -6.3167    0.0000 C   0  0  0  0  0  0  0  0  0  0  0  0
    8.9250   -6.9167    0.0000 C   0  0  0  0  0  0  0  0  0  0  0  0
  2  1  1  0
  3  1  1  0
  4  2  1  0
  5 12  1  0
  6  8  1  0
  7  2  1  0
  8  3  1  0
  9  5  1  0
 10 11  1  0
 11  7  2  0
 12 15  2  0
 13  1  2  0
 14  9  1  0
 15  7  1  0
 16  9  2  0
 17  8  2  0
 18 14  2  0
 19 14  1  0
 20 10  1  0
 21 23  1  0
 22 21  1  0
 23 19  2  0
 24 18  1  0
 25 22  1  0
  4  6  2  0
 10  5  2  0
 24 21  2  0
M  END

> <chembl_id>
CHEMBL6214

> <chembl_pref_name>
None

$$$$

     RDKit          2D

 24 26  0  0  0  0  0  0  0  0999 V2000
    6.3417   -2.4250    0.0000 C   0  0  0  0  0  0  0  0  0  0  0  0
    6.8542   -2.7250    0.0000 N   0  0  0  0  0  0  0  0  0  0  0  0
    6.3417   -1.8250    0.0000 N   0  0  0  0  0  0  0  0  0  0  0  0
    7.3750   -2.4250    0.0000 N   0  0  0  0  0  0  0  0  0  0  0  0
    6.8500   -4.5167    0.0000 C   0  0  0  0  0  0  0  0  0  0  0  0
    7.3750   -1.8250    0.0000 C   0  0  0  0  0  0  0  0  0  0  0  0
    6.8542   -3.3250    0.0000 C   0  0  0  0  0  0  0  0  0  0  0  0
    6.8542   -1.5250    0.0000 C   0  0  0  0  0  0  0  0  0  0  0  0
    6.8500   -5.1167    0.0000 C   0  0  0  0  0  0  0  0  0  0  0  0
    6.3292   -4.2167    0.0000 C   0  0  0  0  0  0  0  0  0  0  0  0
    6.3292   -3.6167    0.0000 C   0  0  0  0  0  0  0  0  0  0  0  0
    7.3667   -4.2167    0.0000 C   0  0  0  0  0  0  0  0  0  0  0  0
    5.8167   -2.7167    0.0000 O   0  0  0  0  0  0  0  0  0  0  0  0
    7.3667   -5.4167    0.0000 C   0  0  0  0  0  0  0  0  0  0  0  0
    7.3667   -3.6167    0.0000 C   0  0  0  0  0  0  0  0  0  0  0  0
    6.3292   -5.4167    0.0000 O   0  0  0  0  0  0  0  0  0  0  0  0
    6.8542   -0.9250    0.0000 O   0  0  0  0  0  0  0  0  0  0  0  0
    7.3667   -6.0167    0.0000 C   0  0  0  0  0  0  0  0  0  0  0  0
    7.8792   -5.1167    0.0000 C   0  0  0  0  0  0  0  0  0  0  0  0
    5.8042   -4.5167    0.0000 Cl  0  0  0  0  0  0  0  0  0  0  0  0
    8.4042   -6.0167    0.0000 C   0  0  0  0  0  0  0  0  0  0  0  0
    7.8875   -6.3167    0.0000 C   0  0  0  0  0  0  0  0  0  0  0  0
    8.4042   -5.4167    0.0000 C   0  0  0  0  0  0  0  0  0  0  0  0
    8.9250   -6.3167    0.0000 Cl  0  0  0  0  0  0  0  0  0  0  0  0
  2  1  1  0
  3  1  1  0
  4  2  1  0
  5 12  1  0
  6  8  1  0
  7  2  1  0
  8  3  1  0
  9  5  1  0
 10 11  1  0
 11  7  2  0
 12 15  2  0
 13  1  2  0
 14  9  1  0
 15  7  1  0
 16  9  2  0
 17  8  2  0
 18 14  2  0
 19 14  1  0
 20 10  1  0
 21 23  1  0
 22 18  1  0
 23 19  2  0
 24 21  1  0
  4  6  2  0
 10  5  2  0
 22 21  2  0
M  END

> <chembl_id>
CHEMBL6222

> <chembl_pref_name>
None

$$$$

     RDKit          2D

 19 21  0  0  0  0  0  0  0  0999 V2000
   -3.6295   -7.5881    0.0000 C   0  0  0  0  0  0  0  0  0  0  0  0
   -3.6295   -8.4132    0.0000 C   0  0  0  0  0  0  0  0  0  0  0  0
   -2.9173   -8.8215    0.0000 C   0  0  0  0  0  0  0  0  0  0  0  0
   -2.2053   -8.4132    0.0000 C   0  0  0  0  0  0  0  0  0  0  0  0
   -2.2053   -7.5881    0.0000 C   0  0  0  0  0  0  0  0  0  0  0  0
   -2.9173   -7.1714    0.0000 O   0  0  0  0  0  0  0  0  0  0  0  0
   -1.4896   -7.1777    0.0000 O   0  0  0  0  0  0  0  0  0  0  0  0
   -4.3452   -7.1777    0.0000 C   0  0  0  0  0  0  0  0  0  0  0  0
   -1.4872   -8.8256    0.0000 C   0  0  0  0  0  0  0  0  0  0  0  0
   -0.0631   -9.6572    0.0000 C   0  0  0  0  0  0  0  0  0  0  0  0
   -0.0599   -8.8311    0.0000 C   0  0  0  0  0  0  0  0  0  0  0  0
   -0.7743   -8.4131    0.0000 C   0  0  0  0  0  0  0  0  0  0  0  0
   -0.7807  -10.0651    0.0000 C   0  0  0  0  0  0  0  0  0  0  0  0
   -1.4911   -9.6548    0.0000 C   0  0  0  0  0  0  0  0  0  0  0  0
   -2.1979  -10.0627    0.0000 C   0  0  0  0  0  0  0  0  0  0  0  0
   -2.2002  -10.8826    0.0000 C   0  0  0  0  0  0  0  0  0  0  0  0
   -1.4897  -11.2929    0.0000 C   0  0  0  0  0  0  0  0  0  0  0  0
   -0.7768  -10.8834    0.0000 C   0  0  0  0  0  0  0  0  0  0  0  0
   -5.0585   -7.5923    0.0000 Br  0  0  0  0  0  0  0  0  0  0  0  0
  9 14  1  0
  2  3  1  0
  3  4  1  0
  4  5  1  0
  5  6  1  0
  9 12  2  0
 13 10  1  0
 10 11  2  0
 11 12  1  0
  4  9  1  0
 13 14  2  0
  5  7  2  0
  1  2  1  0
  1  8  2  0
  1  6  1  0
  8 19  1  0
 13 18  1  0
 14 15  1  0
 15 16  2  0
 16 17  1  0
 17 18  2  0
M  END

> <chembl_id>
CHEMBL6206

> <chembl_pref_name>
BROMOENOL LACTONE

$$$$

     RDKit          2D

 19 21  0  0  0  0  0  0  0  0999 V2000
    3.4042   -4.0667    0.0000 C   0  0  0  0  0  0  0  0  0  0  0  0
    3.4042   -3.4667    0.0000 C   0  0  0  0  0  0  0  0  0  0  0  0
    2.8792   -4.3667    0.0000 O   0  0  0  0  0  0  0  0  0  0  0  0
    3.9250   -3.1625    0.0000 C   0  0  0  0  0  0  0  0  0  0  0  0
    3.9250   -2.5625    0.0000 C   0  0  0  0  0  0  0  0  0  0  0  0
    2.3667   -4.0667    0.0000 C   0  0  0  0  0  0  0  0  0  0  0  0
    2.8792   -3.1667    0.0000 C   0  0  0  0  0  0  0  0  0  0  0  0
    3.9250   -4.3667    0.0000 O   0  0  0  0  0  0  0  0  0  0  0  0
    1.8500   -4.3625    0.0000 C   0  0  0  0  0  0  0  0  0  0  0  0
    4.4417   -2.2542    0.0000 C   0  0  0  0  0  0  0  0  0  0  0  0
    2.3667   -3.4667    0.0000 C   0  0  0  0  0  0  0  0  0  0  0  0
    1.3292   -4.0625    0.0000 I   0  0  0  0  0  0  0  0  0  0  0  0
    4.4417   -3.4542    0.0000 C   0  0  0  0  0  0  0  0  0  0  0  0
    3.4042   -2.2625    0.0000 C   0  0  0  0  0  0  0  0  0  0  0  0
    4.9667   -3.1542    0.0000 C   0  0  0  0  0  0  0  0  0  0  0  0
    4.9667   -2.5542    0.0000 C   0  0  0  0  0  0  0  0  0  0  0  0
    4.4417   -1.6542    0.0000 C   0  0  0  0  0  0  0  0  0  0  0  0
    3.4042   -1.6625    0.0000 C   0  0  0  0  0  0  0  0  0  0  0  0
    3.9250   -1.3625    0.0000 C   0  0  0  0  0  0  0  0  0  0  0  0
  2  1  1  0
  3  1  1  0
  4  2  1  0
  5  4  1  0
  6  3  1  0
  7  2  1  0
  8  1  2  0
  9  6  2  0
 10  5  2  0
 11  6  1  0
 12  9  1  0
 13  4  2  0
 14  5  1  0
 15 13  1  0
 16 15  2  0
 17 10  1  0
 18 14  2  0
 19 18  1  0
  7 11  1  0
 10 16  1  0
 19 17  2  0
M  END

> <chembl_id>
CHEMBL6223

> <chembl_pref_name>
None

$$$$

     RDKit          2D

 20 22  0  0  0  0  0  0  0  0999 V2000
    3.4042   -4.0667    0.0000 C   0  0  0  0  0  0  0  0  0  0  0  0
    3.4042   -3.4667    0.0000 C   0  0  0  0  0  0  0  0  0  0  0  0
    2.8792   -4.3667    0.0000 O   0  0  0  0  0  0  0  0  0  0  0  0
    3.9250   -3.1625    0.0000 C   0  0  0  0  0  0  0  0  0  0  0  0
    3.9250   -2.5625    0.0000 C   0  0  0  0  0  0  0  0  0  0  0  0
    1.3292   -4.0625    0.0000 C   0  0  0  0  0  0  0  0  0  0  0  0
    2.3667   -4.0667    0.0000 C   0  0  0  0  0  0  0  0  0  0  0  0
    0.8042   -3.7625    0.0000 C   0  0  0  0  0  0  0  0  0  0  0  0
    2.8792   -3.1667    0.0000 C   0  0  0  0  0  0  0  0  0  0  0  0
    3.9250   -4.3667    0.0000 O   0  0  0  0  0  0  0  0  0  0  0  0
    1.8500   -4.3625    0.0000 C   0  0  0  0  0  0  0  0  0  0  0  0
    4.4417   -2.2542    0.0000 C   0  0  0  0  0  0  0  0  0  0  0  0
    2.3667   -3.4667    0.0000 C   0  0  0  0  0  0  0  0  0  0  0  0
    4.4417   -3.4542    0.0000 C   0  0  0  0  0  0  0  0  0  0  0  0
    3.4042   -2.2625    0.0000 C   0  0  0  0  0  0  0  0  0  0  0  0
    4.9667   -3.1542    0.0000 C   0  0  0  0  0  0  0  0  0  0  0  0
    4.9667   -2.5542    0.0000 C   0  0  0  0  0  0  0  0  0  0  0  0
    4.4417   -1.6542    0.0000 C   0  0  0  0  0  0  0  0  0  0  0  0
    3.4042   -1.6625    0.0000 C   0  0  0  0  0  0  0  0  0  0  0  0
    3.9250   -1.3625    0.0000 C   0  0  0  0  0  0  0  0  0  0  0  0
  2  1  1  0
  3  1  1  0
  4  2  1  0
  5  4  1  0
  6 11  1  0
  7  3  1  0
  8  6  3  0
  9  2  1  0
 10  1  2  0
 11  7  2  0
 12  5  2  0
 13  7  1  0
 14  4  2  0
 15  5  1  0
 16 14  1  0
 17 16  2  0
 18 12  1  0
 19 15  2  0
 20 19  1  0
 13  9  1  0
 17 12  1  0
 18 20  2  0
M  END

> <chembl_id>
CHEMBL269758

> <chembl_pref_name>
None

$$$$

     RDKit          2D

 19 21  0  0  0  0  0  0  0  0999 V2000
    3.4042   -4.0667    0.0000 C   0  0  0  0  0  0  0  0  0  0  0  0
    3.4042   -3.4667    0.0000 C   0  0  0  0  0  0  0  0  0  0  0  0
    2.8792   -4.3667    0.0000 O   0  0  0  0  0  0  0  0  0  0  0  0
    3.9250   -3.1625    0.0000 C   0  0  0  0  0  0  0  0  0  0  0  0
    3.9250   -2.5625    0.0000 C   0  0  0  0  0  0  0  0  0  0  0  0
    2.3667   -4.0667    0.0000 C   0  0  0  0  0  0  0  0  0  0  0  0
    2.8792   -3.1667    0.0000 C   0  0  0  0  0  0  0  0  0  0  0  0
    3.9250   -4.3667    0.0000 O   0  0  0  0  0  0  0  0  0  0  0  0
    1.8500   -4.3625    0.0000 C   0  0  0  0  0  0  0  0  0  0  0  0
    4.4417   -2.2542    0.0000 C   0  0  0  0  0  0  0  0  0  0  0  0
    2.3667   -3.4667    0.0000 C   0  0  0  0  0  0  0  0  0  0  0  0
    1.8417   -4.9625    0.0000 I   0  0  0  0  0  0  0  0  0  0  0  0
    4.4417   -3.4542    0.0000 C   0  0  0  0  0  0  0  0  0  0  0  0
    3.4042   -2.2625    0.0000 C   0  0  0  0  0  0  0  0  0  0  0  0
    4.9667   -3.1542    0.0000 C   0  0  0  0  0  0  0  0  0  0  0  0
    4.9667   -2.5542    0.0000 C   0  0  0  0  0  0  0  0  0  0  0  0
    4.4417   -1.6542    0.0000 C   0  0  0  0  0  0  0  0  0  0  0  0
    3.4042   -1.6625    0.0000 C   0  0  0  0  0  0  0  0  0  0  0  0
    3.9250   -1.3625    0.0000 C   0  0  0  0  0  0  0  0  0  0  0  0
  2  1  1  0
  3  1  1  0
  4  2  1  0
  5  4  1  0
  6  3  1  0
  7  2  1  0
  8  1  2  0
  9  6  2  0
 10  5  2  0
 11  6  1  0
 12  9  1  0
 13  4  2  0
 14  5  1  0
 15 13  1  0
 16 15  2  0
 17 10  1  0
 18 14  2  0
 19 18  1  0
  7 11  1  0
 10 16  1  0
 19 17  2  0
M  END

> <chembl_id>
CHEMBL6228

> <chembl_pref_name>
None

$$$$

     RDKit          2D

 22 24  0  0  0  0  0  0  0  0999 V2000
    6.3417   -2.4250    0.0000 C   0  0  0  0  0  0  0  0  0  0  0  0
    6.8542   -2.7250    0.0000 N   0  0  0  0  0  0  0  0  0  0  0  0
    6.3417   -1.8250    0.0000 N   0  0  0  0  0  0  0  0  0  0  0  0
    7.3750   -2.4250    0.0000 N   0  0  0  0  0  0  0  0  0  0  0  0
    7.3750   -1.8250    0.0000 C   0  0  0  0  0  0  0  0  0  0  0  0
    6.8542   -1.5250    0.0000 C   0  0  0  0  0  0  0  0  0  0  0  0
    6.8500   -5.1167    0.0000 C   0  0  0  0  0  0  0  0  0  0  0  0
    6.8542   -3.3250    0.0000 C   0  0  0  0  0  0  0  0  0  0  0  0
    5.8167   -2.7167    0.0000 O   0  0  0  0  0  0  0  0  0  0  0  0
    6.8500   -4.5167    0.0000 C   0  0  0  0  0  0  0  0  0  0  0  0
    6.8542   -0.9250    0.0000 O   0  0  0  0  0  0  0  0  0  0  0  0
    6.3292   -5.4167    0.0000 O   0  0  0  0  0  0  0  0  0  0  0  0
    7.3667   -5.4167    0.0000 C   0  0  0  0  0  0  0  0  0  0  0  0
    7.3667   -3.6167    0.0000 C   0  0  0  0  0  0  0  0  0  0  0  0
    6.3292   -3.6167    0.0000 C   0  0  0  0  0  0  0  0  0  0  0  0
    6.3292   -4.2167    0.0000 C   0  0  0  0  0  0  0  0  0  0  0  0
    7.3667   -4.2167    0.0000 C   0  0  0  0  0  0  0  0  0  0  0  0
    7.3667   -6.0167    0.0000 C   0  0  0  0  0  0  0  0  0  0  0  0
    7.8792   -5.1167    0.0000 C   0  0  0  0  0  0  0  0  0  0  0  0
    8.4042   -5.4167    0.0000 C   0  0  0  0  0  0  0  0  0  0  0  0
    7.8875   -6.3167    0.0000 C   0  0  0  0  0  0  0  0  0  0  0  0
    8.4042   -6.0167    0.0000 C   0  0  0  0  0  0  0  0  0  0  0  0
  2  1  1  0
  3  1  1  0
  4  2  1  0
  5  6  1  0
  6  3  1  0
  7 10  1  0
  8  2  1  0
  9  1  2  0
 10 16  2  0
 11  6  2  0
 12  7  2  0
 13  7  1  0
 14  8  1  0
 15  8  2  0
 16 15  1  0
 17 14  2  0
 18 13  2  0
 19 13  1  0
 20 19  2  0
 21 18  1  0
 22 20  1  0
  4  5  2  0
 10 17  1  0
 21 22  2  0
M  END

> <chembl_id>
CHEMBL268365

> <chembl_pref_name>
None

$$$$

     RDKit          2D

 24 26  0  0  0  0  0  0  0  0999 V2000
    3.5250   -1.2125    0.0000 C   0  0  0  0  0  0  0  0  0  0  0  0
    4.0375   -1.5125    0.0000 N   0  0  0  0  0  0  0  0  0  0  0  0
    3.5250   -0.6125    0.0000 N   0  0  0  0  0  0  0  0  0  0  0  0
    4.5542   -1.2125    0.0000 N   0  0  0  0  0  0  0  0  0  0  0  0
    4.0292   -3.3042    0.0000 C   0  0  0  0  0  0  0  0  0  0  0  0
    4.5542   -0.6125    0.0000 C   0  0  0  0  0  0  0  0  0  0  0  0
    4.0375   -2.1125    0.0000 C   0  0  0  0  0  0  0  0  0  0  0  0
    4.0375   -0.3125    0.0000 C   0  0  0  0  0  0  0  0  0  0  0  0
    3.5125   -3.0042    0.0000 C   0  0  0  0  0  0  0  0  0  0  0  0
    3.5167   -2.4042    0.0000 C   0  0  0  0  0  0  0  0  0  0  0  0
    4.0292   -3.9042    0.0000 C   0  0  0  0  0  0  0  0  0  0  0  0
    4.5542   -3.0042    0.0000 C   0  0  0  0  0  0  0  0  0  0  0  0
    3.0042   -1.5042    0.0000 O   0  0  0  0  0  0  0  0  0  0  0  0
    4.5542   -4.2042    0.0000 C   0  0  0  0  0  0  0  0  0  0  0  0
    4.5542   -2.4042    0.0000 C   0  0  0  0  0  0  0  0  0  0  0  0
    4.0375    0.2875    0.0000 O   0  0  0  0  0  0  0  0  0  0  0  0
    4.5500   -4.8042    0.0000 C   0  0  0  0  0  0  0  0  0  0  0  0
    5.0667   -3.9042    0.0000 C   0  0  0  0  0  0  0  0  0  0  0  0
    2.9917   -3.3042    0.0000 Cl  0  0  0  0  0  0  0  0  0  0  0  0
    3.5125   -4.2042    0.0000 O   0  0  0  0  0  0  0  0  0  0  0  0
    5.5875   -4.8042    0.0000 C   0  0  0  0  0  0  0  0  0  0  0  0
    5.0667   -5.1042    0.0000 C   0  0  0  0  0  0  0  0  0  0  0  0
    5.5875   -4.2042    0.0000 C   0  0  0  0  0  0  0  0  0  0  0  0
    6.1042   -5.1042    0.0000 Cl  0  0  0  0  0  0  0  0  0  0  0  0
  2  1  1  0
  3  1  1  0
  4  2  1  0
  5 12  1  0
  6  8  1  0
  7  2  1  0
  8  3  1  0
  9 10  1  0
 10  7  2  0
 11  5  1  0
 12 15  2  0
 13  1  2  0
 14 11  1  0
 15  7  1  0
 16  8  2  0
 17 14  2  0
 18 14  1  0
 19  9  1  0
 20 11  1  0
 21 23  1  0
 22 17  1  0
 23 18  2  0
 24 21  1  0
  4  6  2  0
  9  5  2  0
 22 21  2  0
M  END

> <chembl_id>
CHEMBL6230

> <chembl_pref_name>
None

$$$$

     RDKit          2D

 23 25  0  0  0  0  0  0  0  0999 V2000
    4.1292   -2.7542    0.0000 C   0  0  0  0  0  0  0  0  0  0  0  0
    4.6417   -3.0542    0.0000 N   0  0  0  0  0  0  0  0  0  0  0  0
    4.1292   -2.1542    0.0000 N   0  0  0  0  0  0  0  0  0  0  0  0
    5.1667   -2.7542    0.0000 N   0  0  0  0  0  0  0  0  0  0  0  0
    4.1167   -4.5500    0.0000 C   0  0  0  0  0  0  0  0  0  0  0  0
    5.1667   -2.1542    0.0000 C   0  0  0  0  0  0  0  0  0  0  0  0
    3.6000   -4.8500    0.0000 C   0  0  0  0  0  0  0  0  0  0  0  0
    4.6417   -3.6542    0.0000 C   0  0  0  0  0  0  0  0  0  0  0  0
    4.6417   -1.8542    0.0000 C   0  0  0  0  0  0  0  0  0  0  0  0
    4.1250   -3.9542    0.0000 C   0  0  0  0  0  0  0  0  0  0  0  0
    4.6417   -4.8542    0.0000 C   0  0  0  0  0  0  0  0  0  0  0  0
    3.6125   -3.0542    0.0000 O   0  0  0  0  0  0  0  0  0  0  0  0
    3.0792   -4.5500    0.0000 O   0  0  0  0  0  0  0  0  0  0  0  0
    5.1625   -3.9542    0.0000 C   0  0  0  0  0  0  0  0  0  0  0  0
    3.6000   -5.4500    0.0000 C   0  0  0  0  0  0  0  0  0  0  0  0
    4.6417   -1.2542    0.0000 O   0  0  0  0  0  0  0  0  0  0  0  0
    5.1625   -4.5500    0.0000 C   0  0  0  0  0  0  0  0  0  0  0  0
    4.6375   -5.4542    0.0000 Cl  0  0  0  0  0  0  0  0  0  0  0  0
    3.0792   -5.7500    0.0000 C   0  0  0  0  0  0  0  0  0  0  0  0
    4.1167   -5.7500    0.0000 C   0  0  0  0  0  0  0  0  0  0  0  0
    4.1167   -6.3417    0.0000 C   0  0  0  0  0  0  0  0  0  0  0  0
    3.0792   -6.3417    0.0000 C   0  0  0  0  0  0  0  0  0  0  0  0
    3.6000   -6.6500    0.0000 C   0  0  0  0  0  0  0  0  0  0  0  0
  2  1  1  0
  3  1  1  0
  4  2  1  0
  5 10  1  0
  6  9  1  0
  7  5  1  0
  8  2  1  0
  9  3  1  0
 10  8  2  0
 11 17  1  0
 12  1  2  0
 13  7  2  0
 14  8  1  0
 15  7  1  0
 16  9  2  0
 17 14  2  0
 18 11  1  0
 19 15  2  0
 20 15  1  0
 21 20  2  0
 22 19  1  0
 23 21  1  0
  4  6  2  0
  5 11  2  0
 23 22  2  0
M  END

> <chembl_id>
CHEMBL6254

> <chembl_pref_name>
None

$$$$

     RDKit          2D

 23 25  0  0  0  0  0  0  0  0999 V2000
    3.5250   -1.2125    0.0000 C   0  0  0  0  0  0  0  0  0  0  0  0
    4.0375   -1.5125    0.0000 N   0  0  0  0  0  0  0  0  0  0  0  0
    3.5250   -0.6125    0.0000 N   0  0  0  0  0  0  0  0  0  0  0  0
    4.5542   -1.2125    0.0000 N   0  0  0  0  0  0  0  0  0  0  0  0
    4.5542   -0.6125    0.0000 C   0  0  0  0  0  0  0  0  0  0  0  0
    4.0375   -0.3125    0.0000 C   0  0  0  0  0  0  0  0  0  0  0  0
    4.0375   -2.1125    0.0000 C   0  0  0  0  0  0  0  0  0  0  0  0
    4.0292   -3.3042    0.0000 C   0  0  0  0  0  0  0  0  0  0  0  0
    3.5125   -3.0042    0.0000 C   0  0  0  0  0  0  0  0  0  0  0  0
    4.0292   -3.9042    0.0000 C   0  0  0  0  0  0  0  0  0  0  0  0
    3.5167   -2.4042    0.0000 C   0  0  0  0  0  0  0  0  0  0  0  0
    4.5542   -3.0042    0.0000 C   0  0  0  0  0  0  0  0  0  0  0  0
    3.0042   -1.5042    0.0000 O   0  0  0  0  0  0  0  0  0  0  0  0
    4.5542   -2.4042    0.0000 C   0  0  0  0  0  0  0  0  0  0  0  0
    4.0375    0.2875    0.0000 O   0  0  0  0  0  0  0  0  0  0  0  0
    4.5542   -4.2042    0.0000 C   0  0  0  0  0  0  0  0  0  0  0  0
    3.5125   -4.2042    0.0000 O   0  0  0  0  0  0  0  0  0  0  0  0
    2.9917   -3.3042    0.0000 C   0  0  0  0  0  0  0  0  0  0  0  0
    5.0667   -3.9042    0.0000 C   0  0  0  0  0  0  0  0  0  0  0  0
    4.5500   -4.8042    0.0000 C   0  0  0  0  0  0  0  0  0  0  0  0
    5.0667   -5.1042    0.0000 C   0  0  0  0  0  0  0  0  0  0  0  0
    5.5875   -4.2042    0.0000 C   0  0  0  0  0  0  0  0  0  0  0  0
    5.5875   -4.8042    0.0000 C   0  0  0  0  0  0  0  0  0  0  0  0
  2  1  1  0
  3  1  1  0
  4  2  1  0
  5  6  1  0
  6  3  1  0
  7  2  1  0
  8 12  1  0
  9 11  1  0
 10  8  1  0
 11  7  2  0
 12 14  2  0
 13  1  2  0
 14  7  1  0
 15  6  2  0
 16 10  1  0
 17 10  1  0
 18  9  1  0
 19 16  1  0
 20 16  2  0
 21 20  1  0
 22 19  2  0
 23 21  2  0
  4  5  2  0
  9  8  2  0
 22 23  1  0
M  END

> <chembl_id>
CHEMBL6268

> <chembl_pref_name>
None

$$$$

     RDKit          2D

 32 36  0  0  0  0  0  0  0  0999 V2000
    5.5375   -0.1792    0.0000 C   0  0  0  0  0  0  0  0  0  0  0  0
    1.9667   -1.4250    0.0000 C   0  0  0  0  0  0  0  0  0  0  0  0
    1.9750   -2.2542    0.0000 N   0  0  0  0  0  0  0  0  0  0  0  0
    6.3625   -0.1667    0.0000 C   0  0  0  0  0  0  0  0  0  0  0  0
    4.8250    0.2333    0.0000 C   0  0  0  0  0  0  0  0  0  0  0  0
    0.5417   -2.2542    0.0000 C   0  0  0  0  0  0  0  0  0  0  0  0
    5.9417   -0.8917    0.0000 C   0  0  0  0  0  0  0  0  0  0  0  0
    1.2625   -2.6667    0.0000 C   0  0  0  0  0  0  0  0  0  0  0  0
    1.2542   -1.0167    0.0000 N   0  0  0  0  0  0  0  0  0  0  0  0
    0.5417   -1.4292    0.0000 C   0  0  0  0  0  0  0  0  0  0  0  0
    2.6792   -1.0125    0.0000 N   0  0  0  0  0  0  0  0  0  0  0  0
    4.1042   -0.1792    0.0000 N   0  0  0  0  0  0  0  0  0  0  0  0
   -0.1708   -2.6750    0.0000 C   0  0  0  0  0  0  0  0  0  0  0  0
   -0.1708   -1.0167    0.0000 C   0  0  0  0  0  0  0  0  0  0  0  0
   -0.8833   -2.2625    0.0000 C   0  0  0  0  0  0  0  0  0  0  0  0
   -0.8833   -1.4375    0.0000 C   0  0  0  0  0  0  0  0  0  0  0  0
    4.8167    1.0583    0.0000 O   0  0  0  0  0  0  0  0  0  0  0  0
    7.0750    0.2458    0.0000 C   0  0  0  0  0  0  0  0  0  0  0  0
    3.4000   -1.4167    0.0000 C   0  0  0  0  0  0  0  0  0  0  0  0
    2.6792   -0.1875    0.0000 C   0  0  0  0  0  0  0  0  0  0  0  0
    3.3917    0.2333    0.0000 C   0  0  0  0  0  0  0  0  0  0  0  0
    4.1125   -1.0042    0.0000 C   0  0  0  0  0  0  0  0  0  0  0  0
    1.2542   -3.4917    0.0000 N   0  0  0  0  0  0  0  0  0  0  0  0
   -1.6000   -2.6750    0.0000 O   0  0  0  0  0  0  0  0  0  0  0  0
   -1.5958   -1.0250    0.0000 O   0  0  0  0  0  0  0  0  0  0  0  0
    7.7875   -0.1667    0.0000 C   0  0  0  0  0  0  0  0  0  0  0  0
    7.0625    1.0708    0.0000 C   0  0  0  0  0  0  0  0  0  0  0  0
   -2.3125   -1.4375    0.0000 C   0  0  0  0  0  0  0  0  0  0  0  0
   -2.3125   -2.2625    0.0000 C   0  0  0  0  0  0  0  0  0  0  0  0
    7.7750    1.4833    0.0000 C   0  0  0  0  0  0  0  0  0  0  0  0
    8.4917    0.2500    0.0000 C   0  0  0  0  0  0  0  0  0  0  0  0
    8.4917    1.0750    0.0000 C   0  0  0  0  0  0  0  0  0  0  0  0
  2 11  1  0
  3  2  1  0
  4  1  1  0
  5  1  1  0
  6 10  1  0
  7  1  1  0
  8  3  2  0
  9  2  2  0
 10  9  1  0
 11 19  1  0
 12  5  1  0
 13  6  2  0
 14 10  2  0
 15 16  2  0
 16 14  1  0
 17  5  2  0
 18  4  1  0
 19 22  1  0
 20 21  1  0
 21 12  1  0
 22 12  1  0
 23  8  1  0
 24 15  1  0
 25 16  1  0
 26 18  2  0
 27 18  1  0
 28 25  1  0
 29 24  1  0
 30 27  2  0
 31 26  1  0
 32 30  1  0
  7  4  1  0
 20 11  1  0
 31 32  2  0
  6  8  1  0
 13 15  1  0
M  END

> <chembl_id>
CHEMBL414196

> <chembl_pref_name>
None

$$$$

     RDKit          2D

 24 26  0  0  0  0  0  0  0  0999 V2000
    6.3417   -2.4250    0.0000 C   0  0  0  0  0  0  0  0  0  0  0  0
    6.8542   -2.7250    0.0000 N   0  0  0  0  0  0  0  0  0  0  0  0
    6.3417   -1.8250    0.0000 N   0  0  0  0  0  0  0  0  0  0  0  0
    7.3750   -2.4250    0.0000 N   0  0  0  0  0  0  0  0  0  0  0  0
    7.3750   -1.8250    0.0000 C   0  0  0  0  0  0  0  0  0  0  0  0
    6.8542   -1.5250    0.0000 C   0  0  0  0  0  0  0  0  0  0  0  0
    6.8500   -5.1167    0.0000 C   0  0  0  0  0  0  0  0  0  0  0  0
    6.8542   -3.3250    0.0000 C   0  0  0  0  0  0  0  0  0  0  0  0
    5.8167   -2.7167    0.0000 O   0  0  0  0  0  0  0  0  0  0  0  0
    6.8500   -4.5167    0.0000 C   0  0  0  0  0  0  0  0  0  0  0  0
    7.3667   -5.4167    0.0000 C   0  0  0  0  0  0  0  0  0  0  0  0
    6.8542   -0.9250    0.0000 O   0  0  0  0  0  0  0  0  0  0  0  0
    6.3292   -5.4167    0.0000 O   0  0  0  0  0  0  0  0  0  0  0  0
    7.3667   -3.6167    0.0000 C   0  0  0  0  0  0  0  0  0  0  0  0
    6.3292   -3.6167    0.0000 C   0  0  0  0  0  0  0  0  0  0  0  0
    6.3292   -4.2167    0.0000 C   0  0  0  0  0  0  0  0  0  0  0  0
    7.3667   -4.2167    0.0000 C   0  0  0  0  0  0  0  0  0  0  0  0
    7.3667   -6.0167    0.0000 C   0  0  0  0  0  0  0  0  0  0  0  0
    7.8792   -5.1167    0.0000 C   0  0  0  0  0  0  0  0  0  0  0  0
    8.4042   -6.0167    0.0000 C   0  0  0  0  0  0  0  0  0  0  0  0
    8.4042   -5.4167    0.0000 C   0  0  0  0  0  0  0  0  0  0  0  0
    7.8875   -6.3167    0.0000 C   0  0  0  0  0  0  0  0  0  0  0  0
    8.9250   -6.3167    0.0000 O   0  0  0  0  0  0  0  0  0  0  0  0
    9.4417   -6.0167    0.0000 C   0  0  0  0  0  0  0  0  0  0  0  0
  2  1  1  0
  3  1  1  0
  4  2  1  0
  5  6  1  0
  6  3  1  0
  7 10  1  0
  8  2  1  0
  9  1  2  0
 10 16  2  0
 11  7  1  0
 12  6  2  0
 13  7  2  0
 14  8  1  0
 15  8  2  0
 16 15  1  0
 17 14  2  0
 18 11  2  0
 19 11  1  0
 20 21  1  0
 21 19  2  0
 22 18  1  0
 23 20  1  0
 24 23  1  0
  4  5  2  0
 10 17  1  0
 22 20  2  0
M  END

> <chembl_id>
CHEMBL268528

> <chembl_pref_name>
None

$$$$

     RDKit          2D

 29 32  0  0  0  0  0  0  0  0999 V2000
    4.8417    0.2333    0.0000 S   0  0  0  0  0  0  0  0  0  0  0  0
    1.9750   -1.4292    0.0000 C   0  0  0  0  0  0  0  0  0  0  0  0
    1.9750   -2.2542    0.0000 N   0  0  0  0  0  0  0  0  0  0  0  0
    0.5417   -2.2542    0.0000 C   0  0  0  0  0  0  0  0  0  0  0  0
    1.2542   -2.6667    0.0000 C   0  0  0  0  0  0  0  0  0  0  0  0
    4.1167   -0.1917    0.0000 N   0  0  0  0  0  0  0  0  0  0  0  0
    1.2542   -1.0167    0.0000 N   0  0  0  0  0  0  0  0  0  0  0  0
    5.5625    0.6500    0.0000 C   0  0  0  0  0  0  0  0  0  0  0  0
    0.5417   -1.4292    0.0000 C   0  0  0  0  0  0  0  0  0  0  0  0
    2.6917   -1.0167    0.0000 N   0  0  0  0  0  0  0  0  0  0  0  0
   -0.1708   -2.6667    0.0000 C   0  0  0  0  0  0  0  0  0  0  0  0
   -0.1708   -1.0167    0.0000 C   0  0  0  0  0  0  0  0  0  0  0  0
    6.3250    0.3125    0.0000 S   0  0  0  0  0  0  0  0  0  0  0  0
   -0.8833   -2.2542    0.0000 C   0  0  0  0  0  0  0  0  0  0  0  0
   -0.8833   -1.4375    0.0000 C   0  0  0  0  0  0  0  0  0  0  0  0
    4.4167    0.9500    0.0000 O   0  0  0  0  0  0  0  0  0  0  0  0
    5.2625   -0.4917    0.0000 O   0  0  0  0  0  0  0  0  0  0  0  0
    3.4042    0.2208    0.0000 C   0  0  0  0  0  0  0  0  0  0  0  0
    4.1167   -1.0167    0.0000 C   0  0  0  0  0  0  0  0  0  0  0  0
    2.6917   -0.1917    0.0000 C   0  0  0  0  0  0  0  0  0  0  0  0
    3.4042   -1.4292    0.0000 C   0  0  0  0  0  0  0  0  0  0  0  0
    5.6417    1.4833    0.0000 C   0  0  0  0  0  0  0  0  0  0  0  0
    6.8750    0.9375    0.0000 C   0  0  0  0  0  0  0  0  0  0  0  0
    6.4417    1.6708    0.0000 C   0  0  0  0  0  0  0  0  0  0  0  0
    1.2542   -3.4917    0.0000 N   0  0  0  0  0  0  0  0  0  0  0  0
   -1.6083   -2.6792    0.0000 O   0  0  0  0  0  0  0  0  0  0  0  0
   -1.6083   -1.0167    0.0000 O   0  0  0  0  0  0  0  0  0  0  0  0
   -2.3208   -1.4375    0.0000 C   0  0  0  0  0  0  0  0  0  0  0  0
   -2.3250   -2.2667    0.0000 C   0  0  0  0  0  0  0  0  0  0  0  0
  2 10  1  0
  3  2  1  0
  4  9  1  0
  5  3  2  0
  6  1  1  0
  7  2  2  0
  8  1  1  0
  9  7  1  0
 10 21  1  0
 11  4  2  0
 12  9  2  0
 13  8  1  0
 14 15  2  0
 15 12  1  0
 16  1  2  0
 17  1  2  0
 18  6  1  0
 19  6  1  0
 20 18  1  0
 21 19  1  0
 22  8  2  0
 23 13  1  0
 24 22  1  0
 25  5  1  0
 26 14  1  0
 27 15  1  0
 28 27  1  0
 29 26  1  0
 23 24  2  0
 20 10  1  0
  4  5  1  0
 11 14  1  0
M  END

> <chembl_id>
CHEMBL112998

> <chembl_pref_name>
None

$$$$

     RDKit          2D

 46 52  0  0  0  0  0  0  0  0999 V2000
   -3.6625   -1.6917    0.0000 N   0  0  0  0  0  0  0  0  0  0  0  0
    4.2792   -1.7250    0.0000 N   0  0  0  0  0  0  0  0  0  0  0  0
   -4.3750   -1.2792    0.0000 C   0  0  0  0  0  0  0  0  0  0  0  0
    5.0000   -1.3042    0.0000 C   0  0  0  0  0  0  0  0  0  0  0  0
    5.0000   -0.4792    0.0000 C   0  0  0  0  0  0  0  0  0  0  0  0
   -4.3833   -0.4542    0.0000 C   0  0  0  0  0  0  0  0  0  0  0  0
   -3.6625   -0.0417    0.0000 C   0  0  0  0  0  0  0  0  0  0  0  0
    4.2792   -0.0667    0.0000 C   0  0  0  0  0  0  0  0  0  0  0  0
   -2.9458   -1.2792    0.0000 C   0  0  0  0  0  0  0  0  0  0  0  0
    3.5667   -1.3125    0.0000 C   0  0  0  0  0  0  0  0  0  0  0  0
   -3.6625   -2.5167    0.0000 C   0  0  0  0  0  0  0  0  0  0  0  0
    4.2875   -2.5500    0.0000 C   0  0  0  0  0  0  0  0  0  0  0  0
   -2.9458   -0.4542    0.0000 C   0  0  0  0  0  0  0  0  0  0  0  0
    3.5667   -0.4875    0.0000 C   0  0  0  0  0  0  0  0  0  0  0  0
   -3.6708    0.7833    0.0000 N   0  0  0  0  0  0  0  0  0  0  0  0
    4.3042    0.8083    0.0000 N   0  0  0  0  0  0  0  0  0  0  0  0
   -1.5208   -3.7625    0.0000 C   0  0  0  0  0  0  0  0  0  0  0  0
    2.1500   -3.7792    0.0000 C   0  0  0  0  0  0  0  0  0  0  0  0
   -1.5208   -2.9292    0.0000 C   0  0  0  0  0  0  0  0  0  0  0  0
   -2.2333   -4.1750    0.0000 C   0  0  0  0  0  0  0  0  0  0  0  0
    2.8625   -4.1917    0.0000 C   0  0  0  0  0  0  0  0  0  0  0  0
    2.1500   -2.9667    0.0000 C   0  0  0  0  0  0  0  0  0  0  0  0
    3.5750   -2.9667    0.0000 C   0  0  0  0  0  0  0  0  0  0  0  0
   -2.9458   -2.9292    0.0000 C   0  0  0  0  0  0  0  0  0  0  0  0
    3.5667   -3.7875    0.0000 C   0  0  0  0  0  0  0  0  0  0  0  0
   -2.9458   -3.7625    0.0000 C   0  0  0  0  0  0  0  0  0  0  0  0
    2.8542   -2.5542    0.0000 C   0  0  0  0  0  0  0  0  0  0  0  0
   -2.2333   -2.5167    0.0000 C   0  0  0  0  0  0  0  0  0  0  0  0
   -5.0958   -0.0500    0.0000 C   0  0  0  0  0  0  0  0  0  0  0  0
    5.7042   -0.0667    0.0000 C   0  0  0  0  0  0  0  0  0  0  0  0
    5.7167   -1.7167    0.0000 C   0  0  0  0  0  0  0  0  0  0  0  0
   -5.0833   -1.7000    0.0000 C   0  0  0  0  0  0  0  0  0  0  0  0
   -2.9500    1.1958    0.0000 C   0  0  0  0  0  0  0  0  0  0  0  0
    3.4792    0.8083    0.0000 C   0  0  0  0  0  0  0  0  0  0  0  0
    6.4250   -0.4750    0.0000 C   0  0  0  0  0  0  0  0  0  0  0  0
   -5.8083   -0.4625    0.0000 C   0  0  0  0  0  0  0  0  0  0  0  0
   -5.8000   -1.2917    0.0000 C   0  0  0  0  0  0  0  0  0  0  0  0
    6.4292   -1.3042    0.0000 C   0  0  0  0  0  0  0  0  0  0  0  0
    2.7625    1.2125    0.0000 C   0  0  0  0  0  0  0  0  0  0  0  0
   -2.2375    0.7875    0.0000 C   0  0  0  0  0  0  0  0  0  0  0  0
   -0.0958    1.2083    0.0000 C   0  0  0  0  0  0  0  0  0  0  0  0
    0.6167    0.7958    0.0000 C   0  0  0  0  0  0  0  0  0  0  0  0
    1.3292    1.2083    0.0000 C   0  0  0  0  0  0  0  0  0  0  0  0
    2.0500    0.8000    0.0000 C   0  0  0  0  0  0  0  0  0  0  0  0
   -1.5208    1.2000    0.0000 C   0  0  0  0  0  0  0  0  0  0  0  0
   -0.8083    0.7958    0.0000 C   0  0  0  0  0  0  0  0  0  0  0  0
  2 12  1  0
  3  1  1  0
  4  2  2  0
  5  4  1  0
  6  3  1  0
  7 13  2  0
  8 14  1  0
  9  1  2  0
 10  2  1  0
 11  1  1  0
 12 23  1  0
 13  9  1  0
 14 10  2  0
 15  7  1  0
 16  8  1  0
 17 19  1  0
 18 17  1  0
 19 28  2  0
 20 26  1  0
 21 18  2  0
 22 18  1  0
 23 27  1  0
 24 11  1  0
 25 21  1  0
 26 24  2  0
 27 22  2  0
 28 24  1  0
 29  6  2  0
 30  5  1  0
 31  4  1  0
 32  3  2  0
 33 15  1  0
 34 39  1  0
 35 38  1  0
 36 37  2  0
 37 32  1  0
 38 31  2  0
 39 44  1  0
 40 33  1  0
 41 46  1  0
 42 41  1  0
 43 42  1  0
 44 43  1  0
 45 40  1  0
 46 45  1  0
  6  7  1  0
 17 20  2  0
 36 29  1  0
 23 25  2  0
  8  5  2  0
 16 34  1  0
 30 35  2  0
M  CHG  2   1   1   2   1
M  END

> <chembl_id>
CHEMBL6266

> <chembl_pref_name>
None

$$$$

     RDKit          2D

 36 41  0  0  0  0  0  0  0  0999 V2000
   -2.1500   -0.1667    0.0000 N   0  0  0  0  0  0  0  0  0  0  0  0
    2.5042   -0.1292    0.0000 N   0  0  0  0  0  0  0  0  0  0  0  0
    3.2042    0.3125    0.0000 C   0  0  0  0  0  0  0  0  0  0  0  0
   -2.8708    0.2375    0.0000 C   0  0  0  0  0  0  0  0  0  0  0  0
   -2.8708    1.0708    0.0000 C   0  0  0  0  0  0  0  0  0  0  0  0
    3.1667    1.1375    0.0000 C   0  0  0  0  0  0  0  0  0  0  0  0
   -2.1500   -0.9917    0.0000 C   0  0  0  0  0  0  0  0  0  0  0  0
    2.5417   -0.9542    0.0000 C   0  0  0  0  0  0  0  0  0  0  0  0
    1.7750    0.2458    0.0000 C   0  0  0  0  0  0  0  0  0  0  0  0
   -1.4375    0.2458    0.0000 C   0  0  0  0  0  0  0  0  0  0  0  0
    2.4375    1.5208    0.0000 C   0  0  0  0  0  0  0  0  0  0  0  0
   -2.1583    1.4833    0.0000 C   0  0  0  0  0  0  0  0  0  0  0  0
   -0.2000   -2.1167    0.0000 C   0  0  0  0  0  0  0  0  0  0  0  0
    0.6167   -2.1167    0.0000 C   0  0  0  0  0  0  0  0  0  0  0  0
   -1.4458    1.0708    0.0000 C   0  0  0  0  0  0  0  0  0  0  0  0
    1.7417    1.0833    0.0000 C   0  0  0  0  0  0  0  0  0  0  0  0
   -0.6125   -1.4042    0.0000 C   0  0  0  0  0  0  0  0  0  0  0  0
    1.0292   -1.4042    0.0000 C   0  0  0  0  0  0  0  0  0  0  0  0
   -1.4333   -1.4042    0.0000 C   0  0  0  0  0  0  0  0  0  0  0  0
    1.8542   -1.4000    0.0000 C   0  0  0  0  0  0  0  0  0  0  0  0
   -2.1708    2.3083    0.0000 N   0  0  0  0  0  0  0  0  0  0  0  0
    2.4000    2.3458    0.0000 N   0  0  0  0  0  0  0  0  0  0  0  0
   -3.5833    1.4750    0.0000 C   0  0  0  0  0  0  0  0  0  0  0  0
    3.8625    1.5833    0.0000 C   0  0  0  0  0  0  0  0  0  0  0  0
    3.9375   -0.0667    0.0000 C   0  0  0  0  0  0  0  0  0  0  0  0
   -3.5833   -0.1792    0.0000 C   0  0  0  0  0  0  0  0  0  0  0  0
    1.0292   -2.8292    0.0000 C   0  0  0  0  0  0  0  0  0  0  0  0
   -0.6208   -2.8375    0.0000 C   0  0  0  0  0  0  0  0  0  0  0  0
    1.8542   -2.8292    0.0000 C   0  0  0  0  0  0  0  0  0  0  0  0
   -1.4458   -2.8292    0.0000 C   0  0  0  0  0  0  0  0  0  0  0  0
    2.2667   -2.1167    0.0000 C   0  0  0  0  0  0  0  0  0  0  0  0
   -1.8500   -2.1167    0.0000 C   0  0  0  0  0  0  0  0  0  0  0  0
   -4.2958    1.0625    0.0000 C   0  0  0  0  0  0  0  0  0  0  0  0
    4.5917    1.2000    0.0000 C   0  0  0  0  0  0  0  0  0  0  0  0
   -4.2958    0.2333    0.0000 C   0  0  0  0  0  0  0  0  0  0  0  0
    4.6292    0.3750    0.0000 C   0  0  0  0  0  0  0  0  0  0  0  0
  2  8  1  0
  3  2  1  0
  4  1  1  0
  5  4  1  0
  6  3  1  0
  7  1  1  0
  8 20  1  0
  9  2  2  0
 10  1  2  0
 11 16  2  0
 12 15  2  0
 13 17  2  0
 14 13  1  0
 15 10  1  0
 16  9  1  0
 17 19  1  0
 18 14  1  0
 19  7  1  0
 20 18  2  0
 21 12  1  0
 22 11  1  0
 23  5  2  0
 24  6  2  0
 25  3  2  0
 26  4  2  0
 27 14  2  0
 28 30  2  0
 29 27  1  0
 30 32  1  0
 31 29  2  0
 32 19  2  0
 33 35  2  0
 34 36  2  0
 35 26  1  0
 36 25  1  0
  5 12  1  0
 33 23  1  0
 28 13  1  0
 31 20  1  0
 11  6  1  0
 34 24  1  0
M  CHG  2   1   1   2   1
M  END

> <chembl_id>
CHEMBL6354

> <chembl_pref_name>
None

$$$$

     RDKit          2D

 38 43  0  0  0  0  0  0  0  0999 V2000
   -1.8208   -0.9292    0.0000 N   0  0  0  0  0  0  0  0  0  0  0  0
    5.0667   -1.6500    0.0000 N   0  0  0  0  0  0  0  0  0  0  0  0
    5.7667   -1.2167    0.0000 C   0  0  0  0  0  0  0  0  0  0  0  0
   -2.5750   -0.6042    0.0000 C   0  0  0  0  0  0  0  0  0  0  0  0
   -2.6708    0.2208    0.0000 C   0  0  0  0  0  0  0  0  0  0  0  0
    5.7500   -0.3917    0.0000 C   0  0  0  0  0  0  0  0  0  0  0  0
    5.0875   -2.4750    0.0000 C   0  0  0  0  0  0  0  0  0  0  0  0
   -1.7208   -1.7500    0.0000 C   0  0  0  0  0  0  0  0  0  0  0  0
   -1.1583   -0.4375    0.0000 C   0  0  0  0  0  0  0  0  0  0  0  0
    4.3417   -1.2542    0.0000 C   0  0  0  0  0  0  0  0  0  0  0  0
   -2.0125    0.7083    0.0000 C   0  0  0  0  0  0  0  0  0  0  0  0
    5.0292    0.0083    0.0000 C   0  0  0  0  0  0  0  0  0  0  0  0
    4.3250   -0.4167    0.0000 C   0  0  0  0  0  0  0  0  0  0  0  0
   -1.2583    0.3875    0.0000 C   0  0  0  0  0  0  0  0  0  0  0  0
    4.3792   -2.9000    0.0000 C   0  0  0  0  0  0  0  0  0  0  0  0
   -0.9625   -2.0750    0.0000 C   0  0  0  0  0  0  0  0  0  0  0  0
   -2.1208    1.5333    0.0000 N   0  0  0  0  0  0  0  0  0  0  0  0
    5.0042    0.8333    0.0000 N   0  0  0  0  0  0  0  0  0  0  0  0
    2.7375   -2.8667    0.0000 C   0  0  0  0  0  0  0  0  0  0  0  0
    0.6875   -2.1125    0.0000 C   0  0  0  0  0  0  0  0  0  0  0  0
    1.5125   -2.1292    0.0000 C   0  0  0  0  0  0  0  0  0  0  0  0
    1.9125   -2.8500    0.0000 C   0  0  0  0  0  0  0  0  0  0  0  0
   -0.5708   -2.8000    0.0000 C   0  0  0  0  0  0  0  0  0  0  0  0
   -0.5333   -1.3750    0.0000 C   0  0  0  0  0  0  0  0  0  0  0  0
    3.9792   -2.1750    0.0000 C   0  0  0  0  0  0  0  0  0  0  0  0
    3.9542   -3.6042    0.0000 C   0  0  0  0  0  0  0  0  0  0  0  0
    0.2542   -2.8167    0.0000 C   0  0  0  0  0  0  0  0  0  0  0  0
    3.1292   -3.5917    0.0000 C   0  0  0  0  0  0  0  0  0  0  0  0
    0.2917   -1.3917    0.0000 C   0  0  0  0  0  0  0  0  0  0  0  0
    3.1542   -2.1625    0.0000 C   0  0  0  0  0  0  0  0  0  0  0  0
    6.4542    0.0333    0.0000 C   0  0  0  0  0  0  0  0  0  0  0  0
   -3.4333    0.5375    0.0000 C   0  0  0  0  0  0  0  0  0  0  0  0
   -3.2375   -1.1042    0.0000 C   0  0  0  0  0  0  0  0  0  0  0  0
    6.4917   -1.6167    0.0000 C   0  0  0  0  0  0  0  0  0  0  0  0
    7.1792   -0.3542    0.0000 C   0  0  0  0  0  0  0  0  0  0  0  0
   -4.0958    0.0458    0.0000 C   0  0  0  0  0  0  0  0  0  0  0  0
    7.2000   -1.1875    0.0000 C   0  0  0  0  0  0  0  0  0  0  0  0
   -3.9958   -0.7750    0.0000 C   0  0  0  0  0  0  0  0  0  0  0  0
  2  7  1  0
  3  2  1  0
  4  1  1  0
  5  4  1  0
  6  3  1  0
  7 15  1  0
  8  1  1  0
  9  1  2  0
 10  2  2  0
 11 14  2  0
 12 13  2  0
 13 10  1  0
 14  9  1  0
 15 26  2  0
 16  8  1  0
 17 11  1  0
 18 12  1  0
 19 22  1  0
 20 29  2  0
 21 20  1  0
 22 21  1  0
 23 16  1  0
 24 16  2  0
 25 30  2  0
 26 28  1  0
 27 23  2  0
 28 19  2  0
 29 24  1  0
 30 19  1  0
 31  6  2  0
 32  5  2  0
 33  4  2  0
 34  3  2  0
 35 37  2  0
 36 38  2  0
 37 34  1  0
 38 33  1  0
  5 11  1  0
 20 27  1  0
 36 32  1  0
 25 15  1  0
  6 12  1  0
 35 31  1  0
M  CHG  2   1   1   2   1
M  END

> <chembl_id>
CHEMBL429017

> <chembl_pref_name>
None

$$$$

     RDKit          2D

 38 43  0  0  0  0  0  0  0  0999 V2000
    3.0292   -1.4167    0.0000 N   0  0  0  0  0  0  0  0  0  0  0  0
   -3.5083   -1.4167    0.0000 N   0  0  0  0  0  0  0  0  0  0  0  0
    3.7500   -1.0000    0.0000 C   0  0  0  0  0  0  0  0  0  0  0  0
   -4.2208   -1.0042    0.0000 C   0  0  0  0  0  0  0  0  0  0  0  0
    3.7417   -0.1750    0.0000 C   0  0  0  0  0  0  0  0  0  0  0  0
   -4.2208   -0.1792    0.0000 C   0  0  0  0  0  0  0  0  0  0  0  0
    3.0375   -2.2417    0.0000 C   0  0  0  0  0  0  0  0  0  0  0  0
   -3.5083   -2.2417    0.0000 C   0  0  0  0  0  0  0  0  0  0  0  0
   -2.7875   -1.0042    0.0000 C   0  0  0  0  0  0  0  0  0  0  0  0
    2.3167   -1.0042    0.0000 C   0  0  0  0  0  0  0  0  0  0  0  0
   -3.5083    0.2333    0.0000 C   0  0  0  0  0  0  0  0  0  0  0  0
    3.0292    0.2375    0.0000 C   0  0  0  0  0  0  0  0  0  0  0  0
    2.3167   -0.1750    0.0000 C   0  0  0  0  0  0  0  0  0  0  0  0
   -2.7958   -0.1792    0.0000 C   0  0  0  0  0  0  0  0  0  0  0  0
    0.1750   -3.8917    0.0000 C   0  0  0  0  0  0  0  0  0  0  0  0
   -0.6458   -3.8917    0.0000 C   0  0  0  0  0  0  0  0  0  0  0  0
    0.8917   -3.4792    0.0000 C   0  0  0  0  0  0  0  0  0  0  0  0
   -1.3625   -3.4875    0.0000 C   0  0  0  0  0  0  0  0  0  0  0  0
   -2.7958   -2.6542    0.0000 C   0  0  0  0  0  0  0  0  0  0  0  0
    2.3167   -2.6542    0.0000 C   0  0  0  0  0  0  0  0  0  0  0  0
   -3.5083    1.0583    0.0000 N   0  0  0  0  0  0  0  0  0  0  0  0
    3.0500    1.1208    0.0000 N   0  0  0  0  0  0  0  0  0  0  0  0
   -1.3625   -2.6542    0.0000 C   0  0  0  0  0  0  0  0  0  0  0  0
    0.8917   -2.6542    0.0000 C   0  0  0  0  0  0  0  0  0  0  0  0
   -2.0833   -3.9000    0.0000 C   0  0  0  0  0  0  0  0  0  0  0  0
    1.6042   -3.8917    0.0000 C   0  0  0  0  0  0  0  0  0  0  0  0
   -2.0833   -2.2417    0.0000 C   0  0  0  0  0  0  0  0  0  0  0  0
   -2.7958   -3.4875    0.0000 C   0  0  0  0  0  0  0  0  0  0  0  0
    2.3167   -3.4792    0.0000 C   0  0  0  0  0  0  0  0  0  0  0  0
    1.6042   -2.2417    0.0000 C   0  0  0  0  0  0  0  0  0  0  0  0
    4.4542    0.2458    0.0000 C   0  0  0  0  0  0  0  0  0  0  0  0
   -4.9375    0.2250    0.0000 C   0  0  0  0  0  0  0  0  0  0  0  0
    4.4625   -1.4125    0.0000 C   0  0  0  0  0  0  0  0  0  0  0  0
   -4.9333   -1.4250    0.0000 C   0  0  0  0  0  0  0  0  0  0  0  0
   -5.6583   -0.1875    0.0000 C   0  0  0  0  0  0  0  0  0  0  0  0
    5.1750   -0.1667    0.0000 C   0  0  0  0  0  0  0  0  0  0  0  0
   -5.6458   -1.0167    0.0000 C   0  0  0  0  0  0  0  0  0  0  0  0
    5.1792   -0.9917    0.0000 C   0  0  0  0  0  0  0  0  0  0  0  0
  2  8  1  0
  3  1  2  0
  4  2  1  0
  5  3  1  0
  6  4  1  0
  7  1  1  0
  8 19  1  0
  9  2  2  0
 10  1  1  0
 11 14  2  0
 12 13  1  0
 13 10  2  0
 14  9  1  0
 15 17  1  0
 16 15  2  0
 17 24  2  0
 18 16  1  0
 19 28  2  0
 20  7  1  0
 21 11  1  0
 22 12  1  0
 23 18  1  0
 24 30  1  0
 25 18  2  0
 26 29  2  0
 27 23  2  0
 28 25  1  0
 29 20  1  0
 30 20  2  0
 31  5  1  0
 32  6  2  0
 33  3  1  0
 34  4  2  0
 35 37  2  0
 36 38  1  0
 37 34  1  0
 38 33  2  0
 12  5  2  0
 26 17  1  0
 31 36  2  0
 19 27  1  0
  6 11  1  0
 35 32  1  0
M  CHG  2   1   1   2   1
M  END

> <chembl_id>
CHEMBL6361

> <chembl_pref_name>
None

$$$$

     RDKit          2D

 46 51  0  0  0  0  0  0  0  0999 V2000
   -4.8125   -2.4125    0.0000 N   0  0  0  0  0  0  0  0  0  0  0  0
    3.1292   -2.4417    0.0000 N   0  0  0  0  0  0  0  0  0  0  0  0
   -5.5333   -2.0000    0.0000 C   0  0  0  0  0  0  0  0  0  0  0  0
    3.8500   -2.0250    0.0000 C   0  0  0  0  0  0  0  0  0  0  0  0
    3.8500   -1.2000    0.0000 C   0  0  0  0  0  0  0  0  0  0  0  0
   -5.5333   -1.1750    0.0000 C   0  0  0  0  0  0  0  0  0  0  0  0
    2.4167   -2.0292    0.0000 C   0  0  0  0  0  0  0  0  0  0  0  0
   -4.0958   -2.0000    0.0000 C   0  0  0  0  0  0  0  0  0  0  0  0
   -4.8125   -3.2375    0.0000 C   0  0  0  0  0  0  0  0  0  0  0  0
    3.1375   -3.2667    0.0000 C   0  0  0  0  0  0  0  0  0  0  0  0
    3.1292   -0.7875    0.0000 C   0  0  0  0  0  0  0  0  0  0  0  0
   -4.8125   -0.7542    0.0000 C   0  0  0  0  0  0  0  0  0  0  0  0
   -4.0958   -1.1667    0.0000 C   0  0  0  0  0  0  0  0  0  0  0  0
    2.4167   -1.2000    0.0000 C   0  0  0  0  0  0  0  0  0  0  0  0
   -4.8208    0.0708    0.0000 N   0  0  0  0  0  0  0  0  0  0  0  0
    3.1542    0.0875    0.0000 N   0  0  0  0  0  0  0  0  0  0  0  0
   -4.0958   -3.6500    0.0000 C   0  0  0  0  0  0  0  0  0  0  0  0
    2.4250   -3.6792    0.0000 C   0  0  0  0  0  0  0  0  0  0  0  0
   -6.2417   -0.7667    0.0000 C   0  0  0  0  0  0  0  0  0  0  0  0
    4.5542   -0.7792    0.0000 C   0  0  0  0  0  0  0  0  0  0  0  0
    4.5667   -2.4375    0.0000 C   0  0  0  0  0  0  0  0  0  0  0  0
   -6.2292   -2.4167    0.0000 C   0  0  0  0  0  0  0  0  0  0  0  0
   -4.1000    0.4833    0.0000 C   0  0  0  0  0  0  0  0  0  0  0  0
    2.3292    0.0875    0.0000 C   0  0  0  0  0  0  0  0  0  0  0  0
   -4.0958   -4.4750    0.0000 C   0  0  0  0  0  0  0  0  0  0  0  0
   -3.3833   -3.2375    0.0000 C   0  0  0  0  0  0  0  0  0  0  0  0
    1.7042   -3.2667    0.0000 C   0  0  0  0  0  0  0  0  0  0  0  0
    2.4292   -4.5000    0.0000 C   0  0  0  0  0  0  0  0  0  0  0  0
    1.6125    0.4958    0.0000 C   0  0  0  0  0  0  0  0  0  0  0  0
   -3.3875    0.0708    0.0000 C   0  0  0  0  0  0  0  0  0  0  0  0
   -2.6708    0.4833    0.0000 C   0  0  0  0  0  0  0  0  0  0  0  0
   -1.9583    0.0750    0.0000 C   0  0  0  0  0  0  0  0  0  0  0  0
   -1.2458    0.4875    0.0000 C   0  0  0  0  0  0  0  0  0  0  0  0
   -0.5333    0.0833    0.0000 C   0  0  0  0  0  0  0  0  0  0  0  0
    0.1792    0.4958    0.0000 C   0  0  0  0  0  0  0  0  0  0  0  0
    0.9000    0.0833    0.0000 C   0  0  0  0  0  0  0  0  0  0  0  0
    5.2750   -1.1917    0.0000 C   0  0  0  0  0  0  0  0  0  0  0  0
   -6.9542   -1.1792    0.0000 C   0  0  0  0  0  0  0  0  0  0  0  0
   -6.9500   -2.0042    0.0000 C   0  0  0  0  0  0  0  0  0  0  0  0
    5.2792   -2.0167    0.0000 C   0  0  0  0  0  0  0  0  0  0  0  0
   -2.6708   -3.6417    0.0000 C   0  0  0  0  0  0  0  0  0  0  0  0
    0.9917   -3.6792    0.0000 C   0  0  0  0  0  0  0  0  0  0  0  0
    1.7167   -4.9167    0.0000 C   0  0  0  0  0  0  0  0  0  0  0  0
   -3.3833   -4.8875    0.0000 C   0  0  0  0  0  0  0  0  0  0  0  0
   -2.6708   -4.4750    0.0000 C   0  0  0  0  0  0  0  0  0  0  0  0
    0.9917   -4.5042    0.0000 C   0  0  0  0  0  0  0  0  0  0  0  0
  2  7  1  0
  3  1  1  0
  4  5  1  0
  5 11  2  0
  6  3  1  0
  7 14  2  0
  8  1  2  0
  9  1  1  0
 10  2  1  0
 11 16  1  0
 12 13  2  0
 13  8  1  0
 14 11  1  0
 15 12  1  0
 16 24  1  0
 17  9  1  0
 18 10  1  0
 19  6  2  0
 20  5  1  0
 21  4  1  0
 22  3  2  0
 23 15  1  0
 24 29  1  0
 25 17  2  0
 26 17  1  0
 27 18  2  0
 28 18  1  0
 29 36  1  0
 30 23  1  0
 31 30  1  0
 32 31  1  0
 33 32  1  0
 34 33  1  0
 35 34  1  0
 36 35  1  0
 37 20  2  0
 38 39  2  0
 39 22  1  0
 40 37  1  0
 41 26  2  0
 42 27  1  0
 43 28  2  0
 44 25  1  0
 45 41  1  0
 46 43  1  0
  6 12  1  0
 38 19  1  0
 45 44  2  0
  4  2  2  0
 40 21  2  0
 46 42  2  0
M  CHG  2   1   1   2   1
M  END

> <chembl_id>
CHEMBL6212

> <chembl_pref_name>
None

$$$$

     RDKit          2D

 48 54  0  0  0  0  0  0  0  0999 V2000
   -4.8125   -2.4125    0.0000 N   0  0  0  0  0  0  0  0  0  0  0  0
    3.1292   -2.4417    0.0000 N   0  0  0  0  0  0  0  0  0  0  0  0
   -5.5333   -2.0000    0.0000 C   0  0  0  0  0  0  0  0  0  0  0  0
    3.8500   -2.0250    0.0000 C   0  0  0  0  0  0  0  0  0  0  0  0
    3.8500   -1.2000    0.0000 C   0  0  0  0  0  0  0  0  0  0  0  0
   -5.5333   -1.1750    0.0000 C   0  0  0  0  0  0  0  0  0  0  0  0
   -4.8125   -0.7542    0.0000 C   0  0  0  0  0  0  0  0  0  0  0  0
    3.1292   -0.7875    0.0000 C   0  0  0  0  0  0  0  0  0  0  0  0
   -4.0958   -2.0000    0.0000 C   0  0  0  0  0  0  0  0  0  0  0  0
    2.4167   -2.0292    0.0000 C   0  0  0  0  0  0  0  0  0  0  0  0
   -4.8125   -3.2375    0.0000 C   0  0  0  0  0  0  0  0  0  0  0  0
    3.1375   -3.2667    0.0000 C   0  0  0  0  0  0  0  0  0  0  0  0
   -4.0958   -1.1667    0.0000 C   0  0  0  0  0  0  0  0  0  0  0  0
    2.4167   -1.2000    0.0000 C   0  0  0  0  0  0  0  0  0  0  0  0
   -4.8208    0.0708    0.0000 N   0  0  0  0  0  0  0  0  0  0  0  0
    3.1542    0.0875    0.0000 N   0  0  0  0  0  0  0  0  0  0  0  0
   -1.2625   -5.2917    0.0000 C   0  0  0  0  0  0  0  0  0  0  0  0
   -0.4125   -5.3250    0.0000 C   0  0  0  0  0  0  0  0  0  0  0  0
   -1.9833   -4.8792    0.0000 C   0  0  0  0  0  0  0  0  0  0  0  0
    0.3042   -4.9125    0.0000 C   0  0  0  0  0  0  0  0  0  0  0  0
   -3.4083   -4.0542    0.0000 C   0  0  0  0  0  0  0  0  0  0  0  0
    1.7292   -4.0792    0.0000 C   0  0  0  0  0  0  0  0  0  0  0  0
    0.3042   -4.0875    0.0000 C   0  0  0  0  0  0  0  0  0  0  0  0
   -2.6958   -5.2917    0.0000 C   0  0  0  0  0  0  0  0  0  0  0  0
    1.0167   -5.3250    0.0000 C   0  0  0  0  0  0  0  0  0  0  0  0
   -1.9833   -4.0542    0.0000 C   0  0  0  0  0  0  0  0  0  0  0  0
   -3.4083   -4.8792    0.0000 C   0  0  0  0  0  0  0  0  0  0  0  0
    1.7292   -4.9125    0.0000 C   0  0  0  0  0  0  0  0  0  0  0  0
   -2.6958   -3.6417    0.0000 C   0  0  0  0  0  0  0  0  0  0  0  0
    1.0167   -3.6667    0.0000 C   0  0  0  0  0  0  0  0  0  0  0  0
   -6.2417   -0.7667    0.0000 C   0  0  0  0  0  0  0  0  0  0  0  0
    4.5542   -0.7792    0.0000 C   0  0  0  0  0  0  0  0  0  0  0  0
    4.5667   -2.4375    0.0000 C   0  0  0  0  0  0  0  0  0  0  0  0
   -6.2292   -2.4167    0.0000 C   0  0  0  0  0  0  0  0  0  0  0  0
   -4.1000    0.4833    0.0000 C   0  0  0  0  0  0  0  0  0  0  0  0
    2.3292    0.0875    0.0000 C   0  0  0  0  0  0  0  0  0  0  0  0
    5.2750   -1.1917    0.0000 C   0  0  0  0  0  0  0  0  0  0  0  0
   -6.9542   -1.1792    0.0000 C   0  0  0  0  0  0  0  0  0  0  0  0
   -6.9500   -2.0042    0.0000 C   0  0  0  0  0  0  0  0  0  0  0  0
    5.2792   -2.0167    0.0000 C   0  0  0  0  0  0  0  0  0  0  0  0
    1.6125    0.4958    0.0000 C   0  0  0  0  0  0  0  0  0  0  0  0
   -3.3875    0.0708    0.0000 C   0  0  0  0  0  0  0  0  0  0  0  0
    0.1792    0.4958    0.0000 C   0  0  0  0  0  0  0  0  0  0  0  0
    0.9000    0.0833    0.0000 C   0  0  0  0  0  0  0  0  0  0  0  0
   -2.6708    0.4833    0.0000 C   0  0  0  0  0  0  0  0  0  0  0  0
   -1.9583    0.0750    0.0000 C   0  0  0  0  0  0  0  0  0  0  0  0
   -1.2458    0.4875    0.0000 C   0  0  0  0  0  0  0  0  0  0  0  0
   -0.5333    0.0833    0.0000 C   0  0  0  0  0  0  0  0  0  0  0  0
  2 12  1  0
  3  1  1  0
  4  2  2  0
  5  4  1  0
  6  3  1  0
  7 13  2  0
  8 14  1  0
  9  1  2  0
 10  2  1  0
 11  1  1  0
 12 22  1  0
 13  9  1  0
 14 10  2  0
 15  7  1  0
 16 36  1  0
 17 19  1  0
 18 17  2  0
 19 26  1  0
 20 18  1  0
 21 11  1  0
 22 28  1  0
 23 20  2  0
 24 27  1  0
 25 20  1  0
 26 29  2  0
 27 21  2  0
 28 25  2  0
 29 21  1  0
 30 23  1  0
 31  6  2  0
 32  5  1  0
 33  4  1  0
 34  3  2  0
 35 15  1  0
 36 41  1  0
 37 40  1  0
 38 39  2  0
 39 34  1  0
 40 33  2  0
 41 44  1  0
 42 35  1  0
 43 48  1  0
 44 43  1  0
 45 42  1  0
 46 45  1  0
 47 46  1  0
 48 47  1  0
  7  6  1  0
 19 24  2  0
 38 31  1  0
 30 22  2  0
  8 16  1  0
  8  5  2  0
 32 37  2  0
M  CHG  2   1   1   2   1
M  END

> <chembl_id>
CHEMBL258254

> <chembl_pref_name>
None

$$$$

     RDKit          2D

 48 54  0  0  0  0  0  0  0  0999 V2000
   -5.1083   -2.2917    0.0000 N   0  0  0  0  0  0  0  0  0  0  0  0
    2.8375   -2.3250    0.0000 N   0  0  0  0  0  0  0  0  0  0  0  0
   -5.8208   -1.8792    0.0000 C   0  0  0  0  0  0  0  0  0  0  0  0
    3.5542   -1.9042    0.0000 C   0  0  0  0  0  0  0  0  0  0  0  0
    3.5542   -1.0792    0.0000 C   0  0  0  0  0  0  0  0  0  0  0  0
   -5.8333   -1.0542    0.0000 C   0  0  0  0  0  0  0  0  0  0  0  0
   -5.1083   -0.6417    0.0000 C   0  0  0  0  0  0  0  0  0  0  0  0
    2.8375   -0.6667    0.0000 C   0  0  0  0  0  0  0  0  0  0  0  0
   -4.3958   -1.8792    0.0000 C   0  0  0  0  0  0  0  0  0  0  0  0
    2.1250   -1.9125    0.0000 C   0  0  0  0  0  0  0  0  0  0  0  0
   -5.1083   -3.1167    0.0000 C   0  0  0  0  0  0  0  0  0  0  0  0
    2.8417   -3.1500    0.0000 C   0  0  0  0  0  0  0  0  0  0  0  0
   -4.3958   -1.0542    0.0000 C   0  0  0  0  0  0  0  0  0  0  0  0
    2.1250   -1.0875    0.0000 C   0  0  0  0  0  0  0  0  0  0  0  0
   -5.1125    0.1833    0.0000 N   0  0  0  0  0  0  0  0  0  0  0  0
    2.8542    0.2083    0.0000 N   0  0  0  0  0  0  0  0  0  0  0  0
   -3.6500   -3.6000    0.0000 C   0  0  0  0  0  0  0  0  0  0  0  0
    1.7167   -4.2542    0.0000 C   0  0  0  0  0  0  0  0  0  0  0  0
    0.0667   -4.2792    0.0000 C   0  0  0  0  0  0  0  0  0  0  0  0
   -2.0000   -3.5875    0.0000 C   0  0  0  0  0  0  0  0  0  0  0  0
   -3.2333   -4.3125    0.0000 C   0  0  0  0  0  0  0  0  0  0  0  0
    1.3042   -4.9792    0.0000 C   0  0  0  0  0  0  0  0  0  0  0  0
   -3.2458   -2.8792    0.0000 C   0  0  0  0  0  0  0  0  0  0  0  0
    1.2917   -3.5500    0.0000 C   0  0  0  0  0  0  0  0  0  0  0  0
   -2.4250   -2.8750    0.0000 C   0  0  0  0  0  0  0  0  0  0  0  0
    0.4792   -4.9917    0.0000 C   0  0  0  0  0  0  0  0  0  0  0  0
   -2.4083   -4.3042    0.0000 C   0  0  0  0  0  0  0  0  0  0  0  0
   -1.1750   -3.5792    0.0000 C   0  0  0  0  0  0  0  0  0  0  0  0
   -0.7583   -4.2875    0.0000 C   0  0  0  0  0  0  0  0  0  0  0  0
    0.4667   -3.5625    0.0000 C   0  0  0  0  0  0  0  0  0  0  0  0
   -6.5292   -0.6500    0.0000 C   0  0  0  0  0  0  0  0  0  0  0  0
    4.2625   -0.6667    0.0000 C   0  0  0  0  0  0  0  0  0  0  0  0
    4.2667   -2.3167    0.0000 C   0  0  0  0  0  0  0  0  0  0  0  0
   -6.5292   -2.3000    0.0000 C   0  0  0  0  0  0  0  0  0  0  0  0
   -4.3958    0.5958    0.0000 C   0  0  0  0  0  0  0  0  0  0  0  0
    2.0292    0.2083    0.0000 C   0  0  0  0  0  0  0  0  0  0  0  0
    4.9792   -1.0750    0.0000 C   0  0  0  0  0  0  0  0  0  0  0  0
   -7.2500   -1.0625    0.0000 C   0  0  0  0  0  0  0  0  0  0  0  0
   -7.2417   -1.8917    0.0000 C   0  0  0  0  0  0  0  0  0  0  0  0
    4.9792   -1.9042    0.0000 C   0  0  0  0  0  0  0  0  0  0  0  0
    1.3167    0.6125    0.0000 C   0  0  0  0  0  0  0  0  0  0  0  0
   -3.6833    0.1875    0.0000 C   0  0  0  0  0  0  0  0  0  0  0  0
   -0.1125    0.6083    0.0000 C   0  0  0  0  0  0  0  0  0  0  0  0
    0.6042    0.2000    0.0000 C   0  0  0  0  0  0  0  0  0  0  0  0
   -2.9708    0.6000    0.0000 C   0  0  0  0  0  0  0  0  0  0  0  0
   -2.2583    0.1958    0.0000 C   0  0  0  0  0  0  0  0  0  0  0  0
   -1.5458    0.6083    0.0000 C   0  0  0  0  0  0  0  0  0  0  0  0
   -0.8250    0.1958    0.0000 C   0  0  0  0  0  0  0  0  0  0  0  0
  2 12  1  0
  3  1  1  0
  4  2  2  0
  5  4  1  0
  6  3  1  0
  7 13  2  0
  8 14  1  0
  9  1  2  0
 10  2  1  0
 11  1  1  0
 12 18  1  0
 13  9  1  0
 14 10  2  0
 15  7  1  0
 16 36  1  0
 17 11  1  0
 18 24  1  0
 19 29  1  0
 20 25  1  0
 21 17  2  0
 22 26  1  0
 23 17  1  0
 24 30  2  0
 25 23  2  0
 26 19  2  0
 27 21  1  0
 28 20  1  0
 29 28  1  0
 30 19  1  0
 31  6  2  0
 32  5  1  0
 33  4  1  0
 34  3  2  0
 35 15  1  0
 36 41  1  0
 37 40  1  0
 38 39  2  0
 39 34  1  0
 40 33  2  0
 41 44  1  0
 42 35  1  0
 43 48  1  0
 44 43  1  0
 45 42  1  0
 46 45  1  0
 47 46  1  0
 48 47  1  0
  7  6  1  0
 20 27  2  0
 38 31  1  0
 18 22  2  0
  8 16  1  0
  8  5  2  0
 32 37  2  0
M  CHG  2   1   1   2   1
M  END

> <chembl_id>
CHEMBL266885

> <chembl_pref_name>
None

$$$$

     RDKit          2D

 47 53  0  0  0  0  0  0  0  0999 V2000
   -4.7375   -2.2292    0.0000 N   0  0  0  0  0  0  0  0  0  0  0  0
    3.2042   -2.2625    0.0000 N   0  0  0  0  0  0  0  0  0  0  0  0
   -5.4583   -1.8167    0.0000 C   0  0  0  0  0  0  0  0  0  0  0  0
    3.9250   -1.8417    0.0000 C   0  0  0  0  0  0  0  0  0  0  0  0
    3.9250   -1.0167    0.0000 C   0  0  0  0  0  0  0  0  0  0  0  0
   -5.4583   -0.9917    0.0000 C   0  0  0  0  0  0  0  0  0  0  0  0
   -4.7375   -0.5792    0.0000 C   0  0  0  0  0  0  0  0  0  0  0  0
    3.2042   -0.6042    0.0000 C   0  0  0  0  0  0  0  0  0  0  0  0
   -4.0208   -1.8167    0.0000 C   0  0  0  0  0  0  0  0  0  0  0  0
    2.4917   -1.8500    0.0000 C   0  0  0  0  0  0  0  0  0  0  0  0
   -4.7375   -3.0542    0.0000 C   0  0  0  0  0  0  0  0  0  0  0  0
    3.2125   -3.0875    0.0000 C   0  0  0  0  0  0  0  0  0  0  0  0
   -4.0208   -0.9917    0.0000 C   0  0  0  0  0  0  0  0  0  0  0  0
    2.4917   -1.0250    0.0000 C   0  0  0  0  0  0  0  0  0  0  0  0
   -4.7458    0.2458    0.0000 N   0  0  0  0  0  0  0  0  0  0  0  0
    3.2292    0.2708    0.0000 N   0  0  0  0  0  0  0  0  0  0  0  0
   -2.7833   -4.2250    0.0000 C   0  0  0  0  0  0  0  0  0  0  0  0
    1.5042   -4.2250    0.0000 C   0  0  0  0  0  0  0  0  0  0  0  0
    0.0792   -5.0500    0.0000 C   0  0  0  0  0  0  0  0  0  0  0  0
   -1.3500   -5.0542    0.0000 C   0  0  0  0  0  0  0  0  0  0  0  0
   -0.6333   -5.4667    0.0000 C   0  0  0  0  0  0  0  0  0  0  0  0
   -2.0708   -3.8125    0.0000 C   0  0  0  0  0  0  0  0  0  0  0  0
    1.5042   -5.0500    0.0000 C   0  0  0  0  0  0  0  0  0  0  0  0
   -2.7833   -5.0542    0.0000 C   0  0  0  0  0  0  0  0  0  0  0  0
    0.7792   -3.8125    0.0000 C   0  0  0  0  0  0  0  0  0  0  0  0
   -1.3500   -4.2250    0.0000 C   0  0  0  0  0  0  0  0  0  0  0  0
   -2.0708   -5.4667    0.0000 C   0  0  0  0  0  0  0  0  0  0  0  0
    0.7917   -5.4625    0.0000 C   0  0  0  0  0  0  0  0  0  0  0  0
    0.0750   -4.2292    0.0000 C   0  0  0  0  0  0  0  0  0  0  0  0
    4.6292   -0.6042    0.0000 C   0  0  0  0  0  0  0  0  0  0  0  0
   -6.1667   -0.5875    0.0000 C   0  0  0  0  0  0  0  0  0  0  0  0
   -6.1542   -2.2375    0.0000 C   0  0  0  0  0  0  0  0  0  0  0  0
    4.6417   -2.2542    0.0000 C   0  0  0  0  0  0  0  0  0  0  0  0
    2.4042    0.2708    0.0000 C   0  0  0  0  0  0  0  0  0  0  0  0
   -4.0333    0.6583    0.0000 C   0  0  0  0  0  0  0  0  0  0  0  0
   -6.8792   -1.0000    0.0000 C   0  0  0  0  0  0  0  0  0  0  0  0
    5.3500   -1.0125    0.0000 C   0  0  0  0  0  0  0  0  0  0  0  0
    5.3542   -1.8417    0.0000 C   0  0  0  0  0  0  0  0  0  0  0  0
   -6.8750   -1.8292    0.0000 C   0  0  0  0  0  0  0  0  0  0  0  0
   -3.3125    0.2500    0.0000 C   0  0  0  0  0  0  0  0  0  0  0  0
    1.6875    0.6750    0.0000 C   0  0  0  0  0  0  0  0  0  0  0  0
   -0.4583    0.2583    0.0000 C   0  0  0  0  0  0  0  0  0  0  0  0
    0.2542    0.6708    0.0000 C   0  0  0  0  0  0  0  0  0  0  0  0
    0.9750    0.2625    0.0000 C   0  0  0  0  0  0  0  0  0  0  0  0
   -2.5958    0.6625    0.0000 C   0  0  0  0  0  0  0  0  0  0  0  0
   -1.8833    0.2583    0.0000 C   0  0  0  0  0  0  0  0  0  0  0  0
   -1.1708    0.6708    0.0000 C   0  0  0  0  0  0  0  0  0  0  0  0
  2 12  1  0
  3  1  1  0
  4  2  2  0
  5  4  1  0
  6  3  1  0
  7 13  2  0
  8 14  1  0
  9  1  2  0
 10  2  1  0
 11  1  1  0
 12 18  1  0
 13  9  1  0
 14 10  2  0
 15  7  1  0
 16 34  1  0
 17 11  1  0
 18 25  1  0
 19 21  1  0
 20 27  2  0
 21 20  1  0
 22 17  1  0
 23 28  1  0
 24 17  2  0
 25 29  2  0
 26 22  2  0
 27 24  1  0
 28 19  2  0
 29 19  1  0
 30  5  1  0
 31  6  2  0
 32  3  2  0
 33  4  1  0
 34 41  1  0
 35 15  1  0
 36 39  2  0
 37 38  1  0
 38 33  2  0
 39 32  1  0
 40 35  1  0
 41 44  1  0
 42 47  1  0
 43 42  1  0
 44 43  1  0
 45 40  1  0
 46 45  1  0
 47 46  1  0
  6  7  1  0
 20 26  1  0
 36 31  1  0
 18 23  2  0
  8  5  2  0
 16  8  1  0
 30 37  2  0
M  CHG  2   1   1   2   1
M  END

> <chembl_id>
CHEMBL446445

> <chembl_pref_name>
UCL-1530

$$$$

     RDKit          2D

 37 43  0  0  0  0  0  0  0  0999 V2000
   -2.5583   -1.6417    0.0000 N   0  0  0  0  0  0  0  0  0  0  0  0
    3.1167   -1.7500    0.0000 N   0  0  0  0  0  0  0  0  0  0  0  0
   -0.3958   -2.2417    0.0000 C   0  0  0  0  0  0  0  0  0  0  0  0
    0.9542   -2.2667    0.0000 C   0  0  0  0  0  0  0  0  0  0  0  0
   -0.1500   -3.0375    0.0000 C   0  0  0  0  0  0  0  0  0  0  0  0
    0.6792   -3.0542    0.0000 C   0  0  0  0  0  0  0  0  0  0  0  0
   -3.2750   -1.2292    0.0000 C   0  0  0  0  0  0  0  0  0  0  0  0
    3.8292   -1.3292    0.0000 C   0  0  0  0  0  0  0  0  0  0  0  0
    3.8292   -0.5042    0.0000 C   0  0  0  0  0  0  0  0  0  0  0  0
   -3.2750   -0.4042    0.0000 C   0  0  0  0  0  0  0  0  0  0  0  0
    0.2917   -1.7667    0.0000 C   0  0  0  0  0  0  0  0  0  0  0  0
    3.1167   -2.5750    0.0000 C   0  0  0  0  0  0  0  0  0  0  0  0
   -2.5583   -2.4667    0.0000 C   0  0  0  0  0  0  0  0  0  0  0  0
    2.4042   -1.3375    0.0000 C   0  0  0  0  0  0  0  0  0  0  0  0
   -1.8458   -1.2292    0.0000 C   0  0  0  0  0  0  0  0  0  0  0  0
   -0.7208   -3.6375    0.0000 C   0  0  0  0  0  0  0  0  0  0  0  0
    1.2250   -3.6792    0.0000 C   0  0  0  0  0  0  0  0  0  0  0  0
   -2.5625    0.0125    0.0000 C   0  0  0  0  0  0  0  0  0  0  0  0
    3.1167   -0.0917    0.0000 C   0  0  0  0  0  0  0  0  0  0  0  0
   -1.1958   -2.0542    0.0000 C   0  0  0  0  0  0  0  0  0  0  0  0
    1.7667   -2.1042    0.0000 C   0  0  0  0  0  0  0  0  0  0  0  0
    2.4042   -0.5125    0.0000 C   0  0  0  0  0  0  0  0  0  0  0  0
   -1.8458   -0.4000    0.0000 C   0  0  0  0  0  0  0  0  0  0  0  0
    2.3125   -2.7292    0.0000 C   0  0  0  0  0  0  0  0  0  0  0  0
   -1.7583   -2.6542    0.0000 C   0  0  0  0  0  0  0  0  0  0  0  0
   -1.5208   -3.4500    0.0000 C   0  0  0  0  0  0  0  0  0  0  0  0
    2.0417   -3.5250    0.0000 C   0  0  0  0  0  0  0  0  0  0  0  0
    3.1375    0.7833    0.0000 N   0  0  0  0  0  0  0  0  0  0  0  0
   -2.5625    0.8375    0.0000 N   0  0  0  0  0  0  0  0  0  0  0  0
    4.5417   -0.0917    0.0000 C   0  0  0  0  0  0  0  0  0  0  0  0
   -3.9958    0.0083    0.0000 C   0  0  0  0  0  0  0  0  0  0  0  0
   -3.9833   -1.6417    0.0000 C   0  0  0  0  0  0  0  0  0  0  0  0
    4.5500   -1.7417    0.0000 C   0  0  0  0  0  0  0  0  0  0  0  0
   -4.7083   -0.4042    0.0000 C   0  0  0  0  0  0  0  0  0  0  0  0
    5.2542   -0.5000    0.0000 C   0  0  0  0  0  0  0  0  0  0  0  0
    5.2625   -1.3292    0.0000 C   0  0  0  0  0  0  0  0  0  0  0  0
   -4.7083   -1.2375    0.0000 C   0  0  0  0  0  0  0  0  0  0  0  0
  2 12  1  0
  3 20  2  0
  4 11  1  0
  5 16  2  0
  6  5  1  0
  7  1  1  0
  8  2  2  0
  9  8  1  0
 10  7  1  0
 11  3  1  0
 12 24  1  0
 13  1  1  0
 14  2  1  0
 15  1  2  0
 16 26  1  0
 17  6  1  0
 18 23  2  0
 19 22  1  0
 20 25  1  0
 21  4  1  0
 22 14  2  0
 23 15  1  0
 24 21  2  0
 25 13  1  0
 26 25  2  0
 27 17  2  0
 28 19  1  0
 29 18  1  0
 30  9  1  0
 31 10  2  0
 32  7  2  0
 33  8  1  0
 34 37  2  0
 35 36  1  0
 36 33  2  0
 37 32  1  0
 18 10  1  0
 34 31  1  0
  5  3  1  0
  6  4  2  0
 24 27  1  0
 19  9  2  0
 35 30  2  0
M  CHG  2   1   1   2   1
M  END

> <chembl_id>
CHEMBL6356

> <chembl_pref_name>
None

$$$$

     RDKit          2D

 36 41  0  0  0  0  0  0  0  0999 V2000
   -1.7833   -0.8542    0.0000 N   0  0  0  0  0  0  0  0  0  0  0  0
    3.8792   -0.8375    0.0000 N   0  0  0  0  0  0  0  0  0  0  0  0
    4.5792   -0.4042    0.0000 C   0  0  0  0  0  0  0  0  0  0  0  0
   -2.5375   -0.5292    0.0000 C   0  0  0  0  0  0  0  0  0  0  0  0
   -2.6333    0.2958    0.0000 C   0  0  0  0  0  0  0  0  0  0  0  0
    4.5625    0.4208    0.0000 C   0  0  0  0  0  0  0  0  0  0  0  0
    3.9000   -1.6625    0.0000 C   0  0  0  0  0  0  0  0  0  0  0  0
   -1.6833   -1.6750    0.0000 C   0  0  0  0  0  0  0  0  0  0  0  0
   -1.1208   -0.3625    0.0000 C   0  0  0  0  0  0  0  0  0  0  0  0
    3.1542   -0.4417    0.0000 C   0  0  0  0  0  0  0  0  0  0  0  0
   -1.9750    0.7833    0.0000 C   0  0  0  0  0  0  0  0  0  0  0  0
    3.8417    0.8208    0.0000 C   0  0  0  0  0  0  0  0  0  0  0  0
    3.1375    0.3958    0.0000 C   0  0  0  0  0  0  0  0  0  0  0  0
   -1.2208    0.4625    0.0000 C   0  0  0  0  0  0  0  0  0  0  0  0
    1.5417   -2.0542    0.0000 C   0  0  0  0  0  0  0  0  0  0  0  0
    0.7250   -2.0375    0.0000 C   0  0  0  0  0  0  0  0  0  0  0  0
    1.9667   -1.3500    0.0000 C   0  0  0  0  0  0  0  0  0  0  0  0
    0.3292   -1.3167    0.0000 C   0  0  0  0  0  0  0  0  0  0  0  0
    0.2917   -2.7417    0.0000 C   0  0  0  0  0  0  0  0  0  0  0  0
    1.9417   -2.7792    0.0000 C   0  0  0  0  0  0  0  0  0  0  0  0
   -0.9250   -2.0000    0.0000 C   0  0  0  0  0  0  0  0  0  0  0  0
    3.1917   -2.0875    0.0000 C   0  0  0  0  0  0  0  0  0  0  0  0
   -2.0833    1.6083    0.0000 N   0  0  0  0  0  0  0  0  0  0  0  0
    3.8167    1.6458    0.0000 N   0  0  0  0  0  0  0  0  0  0  0  0
    2.7917   -1.3625    0.0000 C   0  0  0  0  0  0  0  0  0  0  0  0
    2.7667   -2.7917    0.0000 C   0  0  0  0  0  0  0  0  0  0  0  0
   -0.5333   -2.7250    0.0000 C   0  0  0  0  0  0  0  0  0  0  0  0
   -0.4958   -1.3000    0.0000 C   0  0  0  0  0  0  0  0  0  0  0  0
   -3.3958    0.6125    0.0000 C   0  0  0  0  0  0  0  0  0  0  0  0
    5.2667    0.8458    0.0000 C   0  0  0  0  0  0  0  0  0  0  0  0
    5.3042   -0.8042    0.0000 C   0  0  0  0  0  0  0  0  0  0  0  0
   -3.2000   -1.0292    0.0000 C   0  0  0  0  0  0  0  0  0  0  0  0
   -4.0500    0.1208    0.0000 C   0  0  0  0  0  0  0  0  0  0  0  0
    5.9917    0.4583    0.0000 C   0  0  0  0  0  0  0  0  0  0  0  0
   -3.9583   -0.7000    0.0000 C   0  0  0  0  0  0  0  0  0  0  0  0
    6.0125   -0.3750    0.0000 C   0  0  0  0  0  0  0  0  0  0  0  0
  2  7  1  0
  3  2  1  0
  4  1  1  0
  5  4  1  0
  6  3  1  0
  7 22  1  0
  8  1  1  0
  9  1  2  0
 10  2  2  0
 11 14  2  0
 12 13  2  0
 13 10  1  0
 14  9  1  0
 15 16  1  0
 16 18  2  0
 17 15  1  0
 18 28  1  0
 19 27  2  0
 20 15  2  0
 21  8  1  0
 22 25  1  0
 23 11  1  0
 24 12  1  0
 25 17  2  0
 26 20  1  0
 27 21  1  0
 28 21  2  0
 29  5  2  0
 30  6  2  0
 31  3  2  0
 32  4  2  0
 33 35  2  0
 34 36  2  0
 35 32  1  0
 36 31  1  0
 11  5  1  0
 16 19  1  0
 33 29  1  0
 26 22  2  0
  6 12  1  0
 34 30  1  0
M  CHG  2   1   1   2   1
M  END

> <chembl_id>
CHEMBL269729

> <chembl_pref_name>
None

$$$$

     RDKit          2D

 25 27  0  0  0  0  0  0  0  0999 V2000
    5.2792   -2.0500    0.0000 C   0  0  0  0  0  0  0  0  0  0  0  0
    5.7917   -2.3500    0.0000 N   0  0  0  0  0  0  0  0  0  0  0  0
    5.2792   -1.4500    0.0000 N   0  0  0  0  0  0  0  0  0  0  0  0
    6.3125   -2.0500    0.0000 N   0  0  0  0  0  0  0  0  0  0  0  0
    5.7875   -4.7417    0.0000 C   0  0  0  0  0  0  0  0  0  0  0  0
    6.3042   -5.0417    0.0000 C   0  0  0  0  0  0  0  0  0  0  0  0
    5.7875   -4.1417    0.0000 C   0  0  0  0  0  0  0  0  0  0  0  0
    6.3125   -1.4500    0.0000 C   0  0  0  0  0  0  0  0  0  0  0  0
    5.7917   -1.1500    0.0000 C   0  0  0  0  0  0  0  0  0  0  0  0
    5.7917   -2.9500    0.0000 C   0  0  0  0  0  0  0  0  0  0  0  0
    6.3042   -5.6417    0.0000 C   0  0  0  0  0  0  0  0  0  0  0  0
    5.2667   -3.8417    0.0000 C   0  0  0  0  0  0  0  0  0  0  0  0
    5.2667   -3.2417    0.0000 C   0  0  0  0  0  0  0  0  0  0  0  0
    6.8167   -4.7417    0.0000 C   0  0  0  0  0  0  0  0  0  0  0  0
    6.3042   -3.8417    0.0000 C   0  0  0  0  0  0  0  0  0  0  0  0
    6.8250   -5.9417    0.0000 C   0  0  0  0  0  0  0  0  0  0  0  0
    4.7542   -2.3417    0.0000 O   0  0  0  0  0  0  0  0  0  0  0  0
    5.2667   -5.0417    0.0000 O   0  0  0  0  0  0  0  0  0  0  0  0
    6.3042   -3.2417    0.0000 C   0  0  0  0  0  0  0  0  0  0  0  0
    5.7917   -0.5500    0.0000 O   0  0  0  0  0  0  0  0  0  0  0  0
    7.3417   -5.6417    0.0000 C   0  0  0  0  0  0  0  0  0  0  0  0
    5.7792   -5.9417    0.0000 Cl  0  0  0  0  0  0  0  0  0  0  0  0
    7.3417   -5.0417    0.0000 C   0  0  0  0  0  0  0  0  0  0  0  0
    7.8625   -5.9417    0.0000 Cl  0  0  0  0  0  0  0  0  0  0  0  0
    4.7417   -4.1417    0.0000 C   0  0  0  0  0  0  0  0  0  0  0  0
  2  1  1  0
  3  1  1  0
  4  2  1  0
  5  7  1  0
  6  5  1  0
  7 15  1  0
  8  9  1  0
  9  3  1  0
 10  2  1  0
 11  6  2  0
 12 13  1  0
 13 10  2  0
 14  6  1  0
 15 19  2  0
 16 11  1  0
 17  1  2  0
 18  5  2  0
 19 10  1  0
 20  9  2  0
 21 23  1  0
 22 11  1  0
 23 14  2  0
 24 21  1  0
 25 12  1  0
  4  8  2  0
 12  7  2  0
 16 21  2  0
M  END

> <chembl_id>
CHEMBL6344

> <chembl_pref_name>
None

$$$$

     RDKit          2D

 47 54  0  0  0  0  0  0  0  0999 V2000
   -4.7375   -2.2292    0.0000 N   0  0  0  0  0  0  0  0  0  0  0  0
    3.2042   -2.2625    0.0000 N   0  0  0  0  0  0  0  0  0  0  0  0
   -1.4208   -3.6792    0.0000 C   0  0  0  0  0  0  0  0  0  0  0  0
   -0.0708   -3.7042    0.0000 C   0  0  0  0  0  0  0  0  0  0  0  0
   -1.1833   -4.4750    0.0000 C   0  0  0  0  0  0  0  0  0  0  0  0
   -0.3500   -4.4917    0.0000 C   0  0  0  0  0  0  0  0  0  0  0  0
   -5.4583   -1.8167    0.0000 C   0  0  0  0  0  0  0  0  0  0  0  0
    3.9250   -1.8417    0.0000 C   0  0  0  0  0  0  0  0  0  0  0  0
    3.9250   -1.0167    0.0000 C   0  0  0  0  0  0  0  0  0  0  0  0
   -5.4583   -0.9917    0.0000 C   0  0  0  0  0  0  0  0  0  0  0  0
   -0.7375   -3.2042    0.0000 C   0  0  0  0  0  0  0  0  0  0  0  0
    3.2125   -3.0875    0.0000 C   0  0  0  0  0  0  0  0  0  0  0  0
   -4.7375   -3.0542    0.0000 C   0  0  0  0  0  0  0  0  0  0  0  0
   -4.7375   -0.5792    0.0000 C   0  0  0  0  0  0  0  0  0  0  0  0
    3.2042   -0.6042    0.0000 C   0  0  0  0  0  0  0  0  0  0  0  0
   -4.0208   -1.8167    0.0000 C   0  0  0  0  0  0  0  0  0  0  0  0
    2.4917   -1.8500    0.0000 C   0  0  0  0  0  0  0  0  0  0  0  0
   -1.7458   -5.0750    0.0000 C   0  0  0  0  0  0  0  0  0  0  0  0
    0.1917   -5.1167    0.0000 C   0  0  0  0  0  0  0  0  0  0  0  0
   -2.2208   -3.4917    0.0000 C   0  0  0  0  0  0  0  0  0  0  0  0
    0.7417   -3.5500    0.0000 C   0  0  0  0  0  0  0  0  0  0  0  0
    2.4917   -1.0250    0.0000 C   0  0  0  0  0  0  0  0  0  0  0  0
   -4.0208   -0.9917    0.0000 C   0  0  0  0  0  0  0  0  0  0  0  0
    3.2292    0.2708    0.0000 N   0  0  0  0  0  0  0  0  0  0  0  0
   -4.7458    0.2458    0.0000 N   0  0  0  0  0  0  0  0  0  0  0  0
    1.2792   -4.1750    0.0000 C   0  0  0  0  0  0  0  0  0  0  0  0
   -2.7875   -4.0875    0.0000 C   0  0  0  0  0  0  0  0  0  0  0  0
   -2.5500   -4.8792    0.0000 C   0  0  0  0  0  0  0  0  0  0  0  0
    1.0125   -4.9667    0.0000 C   0  0  0  0  0  0  0  0  0  0  0  0
    4.6292   -0.6042    0.0000 C   0  0  0  0  0  0  0  0  0  0  0  0
   -6.1667   -0.5875    0.0000 C   0  0  0  0  0  0  0  0  0  0  0  0
   -6.1542   -2.2375    0.0000 C   0  0  0  0  0  0  0  0  0  0  0  0
    4.6417   -2.2542    0.0000 C   0  0  0  0  0  0  0  0  0  0  0  0
    2.4042    0.2708    0.0000 C   0  0  0  0  0  0  0  0  0  0  0  0
   -4.0333    0.6583    0.0000 C   0  0  0  0  0  0  0  0  0  0  0  0
   -6.8792   -1.0000    0.0000 C   0  0  0  0  0  0  0  0  0  0  0  0
    5.3500   -1.0125    0.0000 C   0  0  0  0  0  0  0  0  0  0  0  0
    5.3542   -1.8417    0.0000 C   0  0  0  0  0  0  0  0  0  0  0  0
   -6.8750   -1.8292    0.0000 C   0  0  0  0  0  0  0  0  0  0  0  0
   -3.3125    0.2500    0.0000 C   0  0  0  0  0  0  0  0  0  0  0  0
    1.6875    0.6750    0.0000 C   0  0  0  0  0  0  0  0  0  0  0  0
   -0.4583    0.2583    0.0000 C   0  0  0  0  0  0  0  0  0  0  0  0
    0.2542    0.6708    0.0000 C   0  0  0  0  0  0  0  0  0  0  0  0
    0.9750    0.2625    0.0000 C   0  0  0  0  0  0  0  0  0  0  0  0
   -2.5958    0.6625    0.0000 C   0  0  0  0  0  0  0  0  0  0  0  0
   -1.8833    0.2583    0.0000 C   0  0  0  0  0  0  0  0  0  0  0  0
   -1.1708    0.6708    0.0000 C   0  0  0  0  0  0  0  0  0  0  0  0
  2 12  1  0
  3 20  2  0
  4 11  1  0
  5 18  2  0
  6  5  1  0
  7  1  1  0
  8  2  2  0
  9  8  1  0
 10  7  1  0
 11  3  1  0
 12 26  1  0
 13  1  1  0
 14 23  2  0
 15 22  1  0
 16  1  2  0
 17  2  1  0
 18 28  1  0
 19  6  1  0
 20 27  1  0
 21  4  1  0
 22 17  2  0
 23 16  1  0
 24 15  1  0
 25 14  1  0
 26 21  2  0
 27 13  1  0
 28 27  2  0
 29 19  2  0
 30  9  1  0
 31 10  2  0
 32  7  2  0
 33  8  1  0
 34 41  1  0
 35 25  1  0
 36 39  2  0
 37 38  1  0
 38 33  2  0
 39 32  1  0
 40 35  1  0
 41 44  1  0
 42 47  1  0
 43 42  1  0
 44 43  1  0
 45 40  1  0
 46 45  1  0
 47 46  1  0
 10 14  1  0
 36 31  1  0
  5  3  1  0
  6  4  2  0
 26 29  1  0
 15  9  2  0
 24 34  1  0
 30 37  2  0
M  CHG  2   1   1   2   1
M  END

> <chembl_id>
CHEMBL6207

> <chembl_pref_name>
None

$$$$

     RDKit          2D

 37 42  0  0  0  0  0  0  0  0999 V2000
   -2.5583   -1.6417    0.0000 N   0  0  0  0  0  0  0  0  0  0  0  0
    3.1167   -1.7500    0.0000 N   0  0  0  0  0  0  0  0  0  0  0  0
   -3.2750   -1.2292    0.0000 C   0  0  0  0  0  0  0  0  0  0  0  0
    3.8292   -1.3292    0.0000 C   0  0  0  0  0  0  0  0  0  0  0  0
    3.8292   -0.5042    0.0000 C   0  0  0  0  0  0  0  0  0  0  0  0
   -3.2750   -0.4042    0.0000 C   0  0  0  0  0  0  0  0  0  0  0  0
   -2.5583   -2.4667    0.0000 C   0  0  0  0  0  0  0  0  0  0  0  0
    3.1167   -2.5750    0.0000 C   0  0  0  0  0  0  0  0  0  0  0  0
   -1.8458   -1.2292    0.0000 C   0  0  0  0  0  0  0  0  0  0  0  0
    2.4042   -1.3375    0.0000 C   0  0  0  0  0  0  0  0  0  0  0  0
    3.1167   -0.0917    0.0000 C   0  0  0  0  0  0  0  0  0  0  0  0
   -2.5625    0.0125    0.0000 C   0  0  0  0  0  0  0  0  0  0  0  0
   -1.8458   -0.4000    0.0000 C   0  0  0  0  0  0  0  0  0  0  0  0
    2.4042   -0.5125    0.0000 C   0  0  0  0  0  0  0  0  0  0  0  0
   -1.8458   -2.8792    0.0000 C   0  0  0  0  0  0  0  0  0  0  0  0
    2.4375   -2.9792    0.0000 C   0  0  0  0  0  0  0  0  0  0  0  0
   -2.5625    0.8375    0.0000 N   0  0  0  0  0  0  0  0  0  0  0  0
    3.1375    0.7833    0.0000 N   0  0  0  0  0  0  0  0  0  0  0  0
    0.9917   -3.7750    0.0000 C   0  0  0  0  0  0  0  0  0  0  0  0
   -0.4375   -3.7417    0.0000 C   0  0  0  0  0  0  0  0  0  0  0  0
    0.2667   -4.1667    0.0000 C   0  0  0  0  0  0  0  0  0  0  0  0
   -1.1250   -2.4792    0.0000 C   0  0  0  0  0  0  0  0  0  0  0  0
    2.4167   -3.8042    0.0000 C   0  0  0  0  0  0  0  0  0  0  0  0
   -1.8708   -3.7042    0.0000 C   0  0  0  0  0  0  0  0  0  0  0  0
    1.7250   -2.5542    0.0000 C   0  0  0  0  0  0  0  0  0  0  0  0
   -0.4208   -2.9125    0.0000 C   0  0  0  0  0  0  0  0  0  0  0  0
   -1.1625   -4.1292    0.0000 C   0  0  0  0  0  0  0  0  0  0  0  0
    1.6917   -4.2042    0.0000 C   0  0  0  0  0  0  0  0  0  0  0  0
    1.0042   -2.9500    0.0000 C   0  0  0  0  0  0  0  0  0  0  0  0
   -3.9958    0.0083    0.0000 C   0  0  0  0  0  0  0  0  0  0  0  0
    4.5417   -0.0917    0.0000 C   0  0  0  0  0  0  0  0  0  0  0  0
    4.5500   -1.7417    0.0000 C   0  0  0  0  0  0  0  0  0  0  0  0
   -3.9833   -1.6417    0.0000 C   0  0  0  0  0  0  0  0  0  0  0  0
    5.2542   -0.5000    0.0000 C   0  0  0  0  0  0  0  0  0  0  0  0
   -4.7083   -0.4042    0.0000 C   0  0  0  0  0  0  0  0  0  0  0  0
   -4.7083   -1.2375    0.0000 C   0  0  0  0  0  0  0  0  0  0  0  0
    5.2625   -1.3292    0.0000 C   0  0  0  0  0  0  0  0  0  0  0  0
  2  8  1  0
  3  1  1  0
  4  2  2  0
  5  4  1  0
  6  3  1  0
  7  1  1  0
  8 16  1  0
  9  1  2  0
 10  2  1  0
 11 14  1  0
 12 13  2  0
 13  9  1  0
 14 10  2  0
 15  7  1  0
 16 25  1  0
 17 12  1  0
 18 11  1  0
 19 21  1  0
 20 27  2  0
 21 20  1  0
 22 15  1  0
 23 28  1  0
 24 15  2  0
 25 29  2  0
 26 22  2  0
 27 24  1  0
 28 19  2  0
 29 19  1  0
 30  6  2  0
 31  5  1  0
 32  4  1  0
 33  3  2  0
 34 37  1  0
 35 36  2  0
 36 33  1  0
 37 32  2  0
  6 12  1  0
 26 20  1  0
 35 30  1  0
 16 23  2  0
 11  5  2  0
 31 34  2  0
M  CHG  2   1   1   2   1
M  END

> <chembl_id>
CHEMBL6315

> <chembl_pref_name>
None

$$$$

     RDKit          2D

 42 45  0  0  0  0  0  0  0  0999 V2000
    1.9667   -1.4250    0.0000 C   0  0  0  0  0  0  0  0  0  0  0  0
    1.9750   -2.2542    0.0000 N   0  0  0  0  0  0  0  0  0  0  0  0
    0.5417   -2.2542    0.0000 C   0  0  0  0  0  0  0  0  0  0  0  0
    1.2625   -2.6667    0.0000 C   0  0  0  0  0  0  0  0  0  0  0  0
    1.2542   -1.0167    0.0000 N   0  0  0  0  0  0  0  0  0  0  0  0
    0.5417   -1.4292    0.0000 C   0  0  0  0  0  0  0  0  0  0  0  0
    2.6792   -1.0125    0.0000 N   0  0  0  0  0  0  0  0  0  0  0  0
    4.1042   -0.1792    0.0000 N   0  0  0  0  0  0  0  0  0  0  0  0
   -0.1708   -2.6750    0.0000 C   0  0  0  0  0  0  0  0  0  0  0  0
   -0.1708   -1.0167    0.0000 C   0  0  0  0  0  0  0  0  0  0  0  0
    4.8250    0.2333    0.0000 C   0  0  0  0  0  0  0  0  0  0  0  0
   -0.8833   -2.2625    0.0000 C   0  0  0  0  0  0  0  0  0  0  0  0
   -0.8833   -1.4375    0.0000 C   0  0  0  0  0  0  0  0  0  0  0  0
   11.2542   -0.9875    0.0000 C   0  0  0  0  0  0  0  0  0  0  0  0
   11.9667   -1.3917    0.0000 C   0  0  0  0  0  0  0  0  0  0  0  0
   11.9750   -2.2167    0.0000 C   0  0  0  0  0  0  0  0  0  0  0  0
   12.6917   -2.6292    0.0000 C   0  0  0  0  0  0  0  0  0  0  0  0
   10.5417   -1.4000    0.0000 N   0  0  0  0  0  0  0  0  0  0  0  0
    3.4000   -1.4167    0.0000 C   0  0  0  0  0  0  0  0  0  0  0  0
    2.6792   -0.1875    0.0000 C   0  0  0  0  0  0  0  0  0  0  0  0
    3.3917    0.2333    0.0000 C   0  0  0  0  0  0  0  0  0  0  0  0
    4.1125   -1.0042    0.0000 C   0  0  0  0  0  0  0  0  0  0  0  0
    4.8167    1.0583    0.0000 O   0  0  0  0  0  0  0  0  0  0  0  0
   11.2500   -0.1542    0.0000 O   0  0  0  0  0  0  0  0  0  0  0  0
   12.6917   -3.4542    0.0000 O   0  0  0  0  0  0  0  0  0  0  0  0
    1.2542   -3.4917    0.0000 N   0  0  0  0  0  0  0  0  0  0  0  0
    9.8250   -0.9917    0.0000 C   0  0  0  0  0  0  0  0  0  0  0  0
   -1.6000   -2.6750    0.0000 O   0  0  0  0  0  0  0  0  0  0  0  0
   -1.5958   -1.0250    0.0000 O   0  0  0  0  0  0  0  0  0  0  0  0
   13.4042   -2.2167    0.0000 O   0  0  0  0  0  0  0  0  0  0  0  0
    8.3917   -0.1667    0.0000 C   0  0  0  0  0  0  0  0  0  0  0  0
    9.1125   -1.4042    0.0000 C   0  0  0  0  0  0  0  0  0  0  0  0
    9.8167   -0.1542    0.0000 C   0  0  0  0  0  0  0  0  0  0  0  0
    8.3917   -0.9917    0.0000 C   0  0  0  0  0  0  0  0  0  0  0  0
    9.1042    0.2458    0.0000 C   0  0  0  0  0  0  0  0  0  0  0  0
    5.5375   -0.1792    0.0000 C   0  0  0  0  0  0  0  0  0  0  0  0
    7.6792    0.2375    0.0000 C   0  0  0  0  0  0  0  0  0  0  0  0
   -2.3125   -1.4375    0.0000 C   0  0  0  0  0  0  0  0  0  0  0  0
   -2.3125   -2.2625    0.0000 C   0  0  0  0  0  0  0  0  0  0  0  0
   14.1167   -2.6250    0.0000 C   0  0  0  0  0  0  0  0  0  0  0  0
    6.2542    0.2333    0.0000 C   0  0  0  0  0  0  0  0  0  0  0  0
    6.9667   -0.1750    0.0000 C   0  0  0  0  0  0  0  0  0  0  0  0
  2  1  1  0
  3  6  1  0
  4  2  2  0
  5  1  2  0
  6  5  1  0
  7  1  1  0
  8 21  1  0
  9  3  2  0
 10  6  2  0
 11  8  1  0
 12 13  2  0
 13 10  1  0
 14 18  1  0
 15 14  1  0
 16 15  2  0
 17 16  1  0
 18 27  1  0
 19  7  1  0
 20  7  1  0
 21 20  1  0
 22 19  1  0
 23 11  2  0
 24 14  2  0
 25 17  2  0
 26  4  1  0
 27 33  1  0
 28 12  1  0
 29 13  1  0
 30 17  1  0
 31 37  1  0
 32 34  1  0
 33 35  2  0
 34 31  2  0
 35 31  1  0
 36 11  1  0
 37 42  1  0
 38 29  1  0
 39 28  1  0
 40 30  1  0
 41 36  1  0
 42 41  1  0
  3  4  1  0
 22  8  1  0
 12  9  1  0
 32 27  2  0
M  END

> <chembl_id>
CHEMBL266223

> <chembl_pref_name>
None

$$$$

     RDKit          2D

 31 34  0  0  0  0  0  0  0  0999 V2000
    1.9667   -1.4250    0.0000 C   0  0  0  0  0  0  0  0  0  0  0  0
    1.9750   -2.2542    0.0000 N   0  0  0  0  0  0  0  0  0  0  0  0
    0.5417   -2.2542    0.0000 C   0  0  0  0  0  0  0  0  0  0  0  0
    1.2625   -2.6667    0.0000 C   0  0  0  0  0  0  0  0  0  0  0  0
    1.2542   -1.0167    0.0000 N   0  0  0  0  0  0  0  0  0  0  0  0
    0.5417   -1.4292    0.0000 C   0  0  0  0  0  0  0  0  0  0  0  0
    2.6792   -1.0125    0.0000 N   0  0  0  0  0  0  0  0  0  0  0  0
    4.1042   -0.1792    0.0000 N   0  0  0  0  0  0  0  0  0  0  0  0
   -0.1708   -2.6750    0.0000 C   0  0  0  0  0  0  0  0  0  0  0  0
   -0.1708   -1.0167    0.0000 C   0  0  0  0  0  0  0  0  0  0  0  0
    4.8250    0.2333    0.0000 C   0  0  0  0  0  0  0  0  0  0  0  0
   -0.8833   -2.2625    0.0000 C   0  0  0  0  0  0  0  0  0  0  0  0
   -0.8833   -1.4375    0.0000 C   0  0  0  0  0  0  0  0  0  0  0  0
    2.6792   -0.1875    0.0000 C   0  0  0  0  0  0  0  0  0  0  0  0
    3.4000   -1.4167    0.0000 C   0  0  0  0  0  0  0  0  0  0  0  0
    4.1125   -1.0042    0.0000 C   0  0  0  0  0  0  0  0  0  0  0  0
    3.3917    0.2333    0.0000 C   0  0  0  0  0  0  0  0  0  0  0  0
    4.8167    1.0583    0.0000 O   0  0  0  0  0  0  0  0  0  0  0  0
    5.5375   -0.1792    0.0000 C   0  0  0  0  0  0  0  0  0  0  0  0
    1.2542   -3.4917    0.0000 N   0  0  0  0  0  0  0  0  0  0  0  0
    5.5417   -1.0042    0.0000 C   0  0  0  0  0  0  0  0  0  0  0  0
   -1.6000   -2.6750    0.0000 O   0  0  0  0  0  0  0  0  0  0  0  0
   -1.5958   -1.0250    0.0000 O   0  0  0  0  0  0  0  0  0  0  0  0
    6.2542   -1.4167    0.0000 C   0  0  0  0  0  0  0  0  0  0  0  0
   -2.3125   -2.2625    0.0000 C   0  0  0  0  0  0  0  0  0  0  0  0
   -2.3125   -1.4375    0.0000 C   0  0  0  0  0  0  0  0  0  0  0  0
    6.2542   -2.2417    0.0000 C   0  0  0  0  0  0  0  0  0  0  0  0
    6.9667   -1.0000    0.0000 C   0  0  0  0  0  0  0  0  0  0  0  0
    7.6792   -1.4042    0.0000 C   0  0  0  0  0  0  0  0  0  0  0  0
    6.9667   -2.6500    0.0000 C   0  0  0  0  0  0  0  0  0  0  0  0
    7.6792   -2.2375    0.0000 C   0  0  0  0  0  0  0  0  0  0  0  0
  2  1  1  0
  3  6  1  0
  4  2  2  0
  5  1  2  0
  6  5  1  0
  7  1  1  0
  8 16  1  0
  9  3  2  0
 10  6  2  0
 11  8  1  0
 12 13  2  0
 13 10  1  0
 14  7  1  0
 15  7  1  0
 16 15  1  0
 17 14  1  0
 18 11  2  0
 19 11  1  0
 20  4  1  0
 21 19  1  0
 22 12  1  0
 23 13  1  0
 24 21  1  0
 25 22  1  0
 26 23  1  0
 27 24  2  0
 28 24  1  0
 29 28  2  0
 30 27  1  0
 31 29  1  0
  3  4  1  0
 17  8  1  0
  9 12  1  0
 30 31  2  0
M  END

> <chembl_id>
CHEMBL263077

> <chembl_pref_name>
None

$$$$

     RDKit          2D

 33 36  0  0  0  0  0  0  0  0999 V2000
    5.0042   -1.9542    0.0000 C   0  0  0  0  0  0  0  0  0  0  0  0
    5.0042   -2.7875    0.0000 N   0  0  0  0  0  0  0  0  0  0  0  0
    3.5792   -2.7917    0.0000 C   0  0  0  0  0  0  0  0  0  0  0  0
    4.2917   -3.2042    0.0000 C   0  0  0  0  0  0  0  0  0  0  0  0
    4.2875   -1.5500    0.0000 N   0  0  0  0  0  0  0  0  0  0  0  0
    3.5792   -1.9667    0.0000 C   0  0  0  0  0  0  0  0  0  0  0  0
    5.7167   -1.5417    0.0000 N   0  0  0  0  0  0  0  0  0  0  0  0
    7.1417   -0.7167    0.0000 N   0  0  0  0  0  0  0  0  0  0  0  0
    7.8542   -0.3000    0.0000 C   0  0  0  0  0  0  0  0  0  0  0  0
    2.8625   -3.2042    0.0000 C   0  0  0  0  0  0  0  0  0  0  0  0
    2.8625   -1.5542    0.0000 C   0  0  0  0  0  0  0  0  0  0  0  0
    8.5667   -0.7125    0.0000 C   0  0  0  0  0  0  0  0  0  0  0  0
    2.1500   -2.7917    0.0000 C   0  0  0  0  0  0  0  0  0  0  0  0
    2.1500   -1.9667    0.0000 C   0  0  0  0  0  0  0  0  0  0  0  0
    8.5750   -1.5375    0.0000 C   0  0  0  0  0  0  0  0  0  0  0  0
    5.7125   -0.7167    0.0000 C   0  0  0  0  0  0  0  0  0  0  0  0
    6.4292   -1.9542    0.0000 C   0  0  0  0  0  0  0  0  0  0  0  0
    7.1417   -1.5417    0.0000 C   0  0  0  0  0  0  0  0  0  0  0  0
    6.4250   -0.3042    0.0000 C   0  0  0  0  0  0  0  0  0  0  0  0
    7.8542    0.5250    0.0000 O   0  0  0  0  0  0  0  0  0  0  0  0
    4.2917   -4.0292    0.0000 N   0  0  0  0  0  0  0  0  0  0  0  0
    9.2917   -1.9500    0.0000 C   0  0  0  0  0  0  0  0  0  0  0  0
   10.7167   -2.7667    0.0000 C   0  0  0  0  0  0  0  0  0  0  0  0
    1.4292   -3.2042    0.0000 O   0  0  0  0  0  0  0  0  0  0  0  0
    1.4375   -1.5542    0.0000 O   0  0  0  0  0  0  0  0  0  0  0  0
    9.2875   -2.7750    0.0000 C   0  0  0  0  0  0  0  0  0  0  0  0
   10.0000   -1.5292    0.0000 C   0  0  0  0  0  0  0  0  0  0  0  0
   10.7042   -1.9417    0.0000 C   0  0  0  0  0  0  0  0  0  0  0  0
   10.0042   -3.1792    0.0000 C   0  0  0  0  0  0  0  0  0  0  0  0
   11.4292   -3.1792    0.0000 O   0  0  0  0  0  0  0  0  0  0  0  0
    0.7167   -2.7917    0.0000 C   0  0  0  0  0  0  0  0  0  0  0  0
    0.7167   -1.9667    0.0000 C   0  0  0  0  0  0  0  0  0  0  0  0
   11.4375   -4.0042    0.0000 C   0  0  0  0  0  0  0  0  0  0  0  0
  2  1  1  0
  3  6  1  0
  4  2  2  0
  5  1  2  0
  6  5  1  0
  7  1  1  0
  8 18  1  0
  9  8  1  0
 10  3  2  0
 11  6  2  0
 12  9  1  0
 13 14  2  0
 14 11  1  0
 15 12  2  0
 16  7  1  0
 17  7  1  0
 18 17  1  0
 19 16  1  0
 20  9  2  0
 21  4  1  0
 22 15  1  0
 23 28  1  0
 24 13  1  0
 25 14  1  0
 26 22  2  0
 27 22  1  0
 28 27  2  0
 29 26  1  0
 30 23  1  0
 31 24  1  0
 32 25  1  0
 33 30  1  0
  3  4  1  0
 19  8  1  0
 10 13  1  0
 29 23  2  0
M  END

> <chembl_id>
CHEMBL6347

> <chembl_pref_name>
None

$$$$

     RDKit          2D

 32 35  0  0  0  0  0  0  0  0999 V2000
    5.0042   -1.9542    0.0000 C   0  0  0  0  0  0  0  0  0  0  0  0
    5.0042   -2.7875    0.0000 N   0  0  0  0  0  0  0  0  0  0  0  0
    3.5792   -2.7917    0.0000 C   0  0  0  0  0  0  0  0  0  0  0  0
    4.2917   -3.2042    0.0000 C   0  0  0  0  0  0  0  0  0  0  0  0
    4.2875   -1.5500    0.0000 N   0  0  0  0  0  0  0  0  0  0  0  0
    3.5792   -1.9667    0.0000 C   0  0  0  0  0  0  0  0  0  0  0  0
    5.7167   -1.5417    0.0000 N   0  0  0  0  0  0  0  0  0  0  0  0
    7.1417   -0.7167    0.0000 N   0  0  0  0  0  0  0  0  0  0  0  0
    7.8542   -0.3000    0.0000 C   0  0  0  0  0  0  0  0  0  0  0  0
    2.8625   -3.2042    0.0000 C   0  0  0  0  0  0  0  0  0  0  0  0
    2.8625   -1.5542    0.0000 C   0  0  0  0  0  0  0  0  0  0  0  0
    8.5667   -0.7125    0.0000 C   0  0  0  0  0  0  0  0  0  0  0  0
    2.1500   -2.7917    0.0000 C   0  0  0  0  0  0  0  0  0  0  0  0
    2.1500   -1.9667    0.0000 C   0  0  0  0  0  0  0  0  0  0  0  0
    8.5750   -1.5375    0.0000 C   0  0  0  0  0  0  0  0  0  0  0  0
    5.7125   -0.7167    0.0000 C   0  0  0  0  0  0  0  0  0  0  0  0
    6.4292   -1.9542    0.0000 C   0  0  0  0  0  0  0  0  0  0  0  0
    7.1417   -1.5417    0.0000 C   0  0  0  0  0  0  0  0  0  0  0  0
    6.4250   -0.3042    0.0000 C   0  0  0  0  0  0  0  0  0  0  0  0
    7.8542    0.5250    0.0000 O   0  0  0  0  0  0  0  0  0  0  0  0
    4.2917   -4.0292    0.0000 N   0  0  0  0  0  0  0  0  0  0  0  0
    9.2917   -1.9500    0.0000 C   0  0  0  0  0  0  0  0  0  0  0  0
   10.0000   -1.5292    0.0000 C   0  0  0  0  0  0  0  0  0  0  0  0
   10.7042   -1.9417    0.0000 C   0  0  0  0  0  0  0  0  0  0  0  0
    1.4292   -3.2042    0.0000 O   0  0  0  0  0  0  0  0  0  0  0  0
    1.4375   -1.5542    0.0000 O   0  0  0  0  0  0  0  0  0  0  0  0
   11.4292   -1.5250    0.0000 F   0  0  0  0  0  0  0  0  0  0  0  0
   10.0042   -3.1792    0.0000 C   0  0  0  0  0  0  0  0  0  0  0  0
    9.2875   -2.7750    0.0000 C   0  0  0  0  0  0  0  0  0  0  0  0
   10.7167   -2.7667    0.0000 C   0  0  0  0  0  0  0  0  0  0  0  0
    0.7167   -2.7917    0.0000 C   0  0  0  0  0  0  0  0  0  0  0  0
    0.7167   -1.9667    0.0000 C   0  0  0  0  0  0  0  0  0  0  0  0
  2  1  1  0
  3  6  1  0
  4  2  2  0
  5  1  2  0
  6  5  1  0
  7  1  1  0
  8 18  1  0
  9  8  1  0
 10  3  2  0
 11  6  2  0
 12  9  1  0
 13 14  2  0
 14 11  1  0
 15 12  2  0
 16  7  1  0
 17  7  1  0
 18 17  1  0
 19 16  1  0
 20  9  2  0
 21  4  1  0
 22 15  1  0
 23 22  1  0
 24 23  2  0
 25 13  1  0
 26 14  1  0
 27 24  1  0
 28 29  1  0
 29 22  2  0
 30 28  2  0
 31 25  1  0
 32 26  1  0
  3  4  1  0
 19  8  1  0
 10 13  1  0
 24 30  1  0
M  END

> <chembl_id>
CHEMBL6348

> <chembl_pref_name>
None

$$$$

     RDKit          2D

 30 34  0  0  0  0  0  0  0  0999 V2000
    1.9750   -1.4292    0.0000 C   0  0  0  0  0  0  0  0  0  0  0  0
    1.9750   -2.2542    0.0000 N   0  0  0  0  0  0  0  0  0  0  0  0
    0.5417   -2.2542    0.0000 C   0  0  0  0  0  0  0  0  0  0  0  0
    1.2542   -2.6667    0.0000 C   0  0  0  0  0  0  0  0  0  0  0  0
    1.2542   -1.0167    0.0000 N   0  0  0  0  0  0  0  0  0  0  0  0
    4.8417    0.2333    0.0000 C   0  0  0  0  0  0  0  0  0  0  0  0
    0.5417   -1.4292    0.0000 C   0  0  0  0  0  0  0  0  0  0  0  0
    2.6917   -1.0167    0.0000 N   0  0  0  0  0  0  0  0  0  0  0  0
    5.5500   -0.2000    0.0000 C   0  0  0  0  0  0  0  0  0  0  0  0
    4.1167   -0.1917    0.0000 N   0  0  0  0  0  0  0  0  0  0  0  0
   -0.1708   -2.6667    0.0000 C   0  0  0  0  0  0  0  0  0  0  0  0
    6.2792   -0.0292    0.0000 C   0  0  0  0  0  0  0  0  0  0  0  0
   -0.1708   -1.0167    0.0000 C   0  0  0  0  0  0  0  0  0  0  0  0
    6.5917    0.6958    0.0000 C   0  0  0  0  0  0  0  0  0  0  0  0
   -0.8833   -2.2542    0.0000 C   0  0  0  0  0  0  0  0  0  0  0  0
   -0.8833   -1.4375    0.0000 C   0  0  0  0  0  0  0  0  0  0  0  0
    6.7250    0.0208    0.0000 C   0  0  0  0  0  0  0  0  0  0  0  0
    5.7042   -0.8125    0.0000 C   0  0  0  0  0  0  0  0  0  0  0  0
    4.8375    1.0583    0.0000 O   0  0  0  0  0  0  0  0  0  0  0  0
    2.6917   -0.1917    0.0000 C   0  0  0  0  0  0  0  0  0  0  0  0
    3.4042   -1.4292    0.0000 C   0  0  0  0  0  0  0  0  0  0  0  0
    6.5375   -0.6750    0.0000 C   0  0  0  0  0  0  0  0  0  0  0  0
    7.1292   -1.1542    0.0000 C   0  0  0  0  0  0  0  0  0  0  0  0
    4.1167   -1.0167    0.0000 C   0  0  0  0  0  0  0  0  0  0  0  0
    3.4042    0.2208    0.0000 C   0  0  0  0  0  0  0  0  0  0  0  0
    1.2542   -3.4917    0.0000 N   0  0  0  0  0  0  0  0  0  0  0  0
   -1.6083   -2.6792    0.0000 O   0  0  0  0  0  0  0  0  0  0  0  0
   -1.6083   -1.0167    0.0000 O   0  0  0  0  0  0  0  0  0  0  0  0
   -2.3250   -2.2667    0.0000 C   0  0  0  0  0  0  0  0  0  0  0  0
   -2.3208   -1.4375    0.0000 C   0  0  0  0  0  0  0  0  0  0  0  0
  2  1  1  0
  3  7  1  0
  4  2  2  0
  5  1  2  0
  6 10  1  0
  7  5  1  0
  8  1  1  0
  9  6  1  0
 10 24  1  0
 11  3  2  0
 12  9  1  0
 13  7  2  0
 14 12  1  0
 15 16  2  0
 16 13  1  0
 17 22  1  0
 18  9  1  0
 19  6  2  0
 20  8  1  0
 21  8  1  0
 22 18  1  0
 23 12  1  0
 24 21  1  0
 25 20  1  0
 26  4  1  0
 27 15  1  0
 28 16  1  0
 29 27  1  0
 30 28  1  0
  3  4  1  0
 25 10  1  0
 11 15  1  0
 23 22  1  0
 14 17  2  0
M  END

> <chembl_id>
CHEMBL6339

> <chembl_pref_name>
None

$$$$

     RDKit          2D

 28 30  0  0  0  0  0  0  0  0999 V2000
    5.0042   -1.9542    0.0000 C   0  0  0  0  0  0  0  0  0  0  0  0
    5.0042   -2.7875    0.0000 N   0  0  0  0  0  0  0  0  0  0  0  0
    3.5792   -2.7917    0.0000 C   0  0  0  0  0  0  0  0  0  0  0  0
    4.2917   -3.2042    0.0000 C   0  0  0  0  0  0  0  0  0  0  0  0
    4.2875   -1.5500    0.0000 N   0  0  0  0  0  0  0  0  0  0  0  0
    3.5792   -1.9667    0.0000 C   0  0  0  0  0  0  0  0  0  0  0  0
    5.7167   -1.5417    0.0000 N   0  0  0  0  0  0  0  0  0  0  0  0
    7.1417   -0.7167    0.0000 N   0  0  0  0  0  0  0  0  0  0  0  0
    2.8625   -3.2042    0.0000 C   0  0  0  0  0  0  0  0  0  0  0  0
    7.8542   -0.3000    0.0000 C   0  0  0  0  0  0  0  0  0  0  0  0
    2.8625   -1.5542    0.0000 C   0  0  0  0  0  0  0  0  0  0  0  0
    2.1500   -2.7917    0.0000 C   0  0  0  0  0  0  0  0  0  0  0  0
    2.1500   -1.9667    0.0000 C   0  0  0  0  0  0  0  0  0  0  0  0
    5.7125   -0.7167    0.0000 C   0  0  0  0  0  0  0  0  0  0  0  0
    6.4292   -1.9542    0.0000 C   0  0  0  0  0  0  0  0  0  0  0  0
    7.1417   -1.5417    0.0000 C   0  0  0  0  0  0  0  0  0  0  0  0
    6.4250   -0.3042    0.0000 C   0  0  0  0  0  0  0  0  0  0  0  0
    8.5667   -0.7125    0.0000 C   0  0  0  0  0  0  0  0  0  0  0  0
    7.8542    0.5250    0.0000 O   0  0  0  0  0  0  0  0  0  0  0  0
    8.5750   -1.5375    0.0000 C   0  0  0  0  0  0  0  0  0  0  0  0
    9.2917   -1.9500    0.0000 C   0  0  0  0  0  0  0  0  0  0  0  0
    4.2917   -4.0292    0.0000 N   0  0  0  0  0  0  0  0  0  0  0  0
    9.2917   -2.7750    0.0000 C   0  0  0  0  0  0  0  0  0  0  0  0
    1.4292   -3.2042    0.0000 O   0  0  0  0  0  0  0  0  0  0  0  0
    1.4375   -1.5542    0.0000 O   0  0  0  0  0  0  0  0  0  0  0  0
   10.0042   -3.1792    0.0000 C   0  0  0  0  0  0  0  0  0  0  0  0
    0.7167   -2.7917    0.0000 C   0  0  0  0  0  0  0  0  0  0  0  0
    0.7167   -1.9667    0.0000 C   0  0  0  0  0  0  0  0  0  0  0  0
  2  1  1  0
  3  6  1  0
  4  2  2  0
  5  1  2  0
  6  5  1  0
  7  1  1  0
  8 16  1  0
  9  3  2  0
 10  8  1  0
 11  6  2  0
 12 13  2  0
 13 11  1  0
 14  7  1  0
 15  7  1  0
 16 15  1  0
 17 14  1  0
 18 10  1  0
 19 10  2  0
 20 18  2  0
 21 20  1  0
 22  4  1  0
 23 21  2  0
 24 12  1  0
 25 13  1  0
 26 23  1  0
 27 24  1  0
 28 25  1  0
  3  4  1  0
 17  8  1  0
  9 12  1  0
M  END

> <chembl_id>
CHEMBL6340

> <chembl_pref_name>
None

$$$$

     RDKit          2D

 31 34  0  0  0  0  0  0  0  0999 V2000
    5.0042   -1.9542    0.0000 C   0  0  0  0  0  0  0  0  0  0  0  0
    5.0042   -2.7875    0.0000 N   0  0  0  0  0  0  0  0  0  0  0  0
    3.5792   -2.7917    0.0000 C   0  0  0  0  0  0  0  0  0  0  0  0
    4.2917   -3.2042    0.0000 C   0  0  0  0  0  0  0  0  0  0  0  0
    4.2875   -1.5500    0.0000 N   0  0  0  0  0  0  0  0  0  0  0  0
    3.5792   -1.9667    0.0000 C   0  0  0  0  0  0  0  0  0  0  0  0
    5.7167   -1.5417    0.0000 N   0  0  0  0  0  0  0  0  0  0  0  0
    7.1417   -0.7167    0.0000 N   0  0  0  0  0  0  0  0  0  0  0  0
    7.8542   -0.3000    0.0000 C   0  0  0  0  0  0  0  0  0  0  0  0
    2.8625   -3.2042    0.0000 C   0  0  0  0  0  0  0  0  0  0  0  0
    2.8625   -1.5542    0.0000 C   0  0  0  0  0  0  0  0  0  0  0  0
    8.5667   -0.7125    0.0000 C   0  0  0  0  0  0  0  0  0  0  0  0
    2.1500   -2.7917    0.0000 C   0  0  0  0  0  0  0  0  0  0  0  0
    2.1500   -1.9667    0.0000 C   0  0  0  0  0  0  0  0  0  0  0  0
    8.5750   -1.5375    0.0000 C   0  0  0  0  0  0  0  0  0  0  0  0
    5.7125   -0.7167    0.0000 C   0  0  0  0  0  0  0  0  0  0  0  0
    6.4292   -1.9542    0.0000 C   0  0  0  0  0  0  0  0  0  0  0  0
    7.1417   -1.5417    0.0000 C   0  0  0  0  0  0  0  0  0  0  0  0
    6.4250   -0.3042    0.0000 C   0  0  0  0  0  0  0  0  0  0  0  0
    7.8542    0.5250    0.0000 O   0  0  0  0  0  0  0  0  0  0  0  0
    4.2917   -4.0292    0.0000 N   0  0  0  0  0  0  0  0  0  0  0  0
    9.2917   -1.9500    0.0000 C   0  0  0  0  0  0  0  0  0  0  0  0
    1.4292   -3.2042    0.0000 O   0  0  0  0  0  0  0  0  0  0  0  0
    1.4375   -1.5542    0.0000 O   0  0  0  0  0  0  0  0  0  0  0  0
    9.2875   -2.7750    0.0000 C   0  0  0  0  0  0  0  0  0  0  0  0
   10.0000   -1.5292    0.0000 C   0  0  0  0  0  0  0  0  0  0  0  0
    0.7167   -2.7917    0.0000 C   0  0  0  0  0  0  0  0  0  0  0  0
    0.7167   -1.9667    0.0000 C   0  0  0  0  0  0  0  0  0  0  0  0
   10.7042   -1.9417    0.0000 C   0  0  0  0  0  0  0  0  0  0  0  0
   10.0042   -3.1792    0.0000 C   0  0  0  0  0  0  0  0  0  0  0  0
   10.7167   -2.7667    0.0000 C   0  0  0  0  0  0  0  0  0  0  0  0
  2  1  1  0
  3  6  1  0
  4  2  2  0
  5  1  2  0
  6  5  1  0
  7  1  1  0
  8 18  1  0
  9  8  1  0
 10  3  2  0
 11  6  2  0
 12  9  1  0
 13 14  2  0
 14 11  1  0
 15 12  2  0
 16  7  1  0
 17  7  1  0
 18 17  1  0
 19 16  1  0
 20  9  2  0
 21  4  1  0
 22 15  1  0
 23 13  1  0
 24 14  1  0
 25 22  2  0
 26 22  1  0
 27 23  1  0
 28 24  1  0
 29 26  2  0
 30 25  1  0
 31 29  1  0
  3  4  1  0
 19  8  1  0
 10 13  1  0
 30 31  2  0
M  END

> <chembl_id>
CHEMBL268768

> <chembl_pref_name>
None

$$$$

     RDKit          2D

 32 35  0  0  0  0  0  0  0  0999 V2000
    5.0042   -1.9542    0.0000 C   0  0  0  0  0  0  0  0  0  0  0  0
    5.0042   -2.7875    0.0000 N   0  0  0  0  0  0  0  0  0  0  0  0
    3.5792   -2.7917    0.0000 C   0  0  0  0  0  0  0  0  0  0  0  0
    4.2917   -3.2042    0.0000 C   0  0  0  0  0  0  0  0  0  0  0  0
    4.2875   -1.5500    0.0000 N   0  0  0  0  0  0  0  0  0  0  0  0
    3.5792   -1.9667    0.0000 C   0  0  0  0  0  0  0  0  0  0  0  0
    5.7167   -1.5417    0.0000 N   0  0  0  0  0  0  0  0  0  0  0  0
    7.1417   -0.7167    0.0000 N   0  0  0  0  0  0  0  0  0  0  0  0
    7.8542   -0.3000    0.0000 C   0  0  0  0  0  0  0  0  0  0  0  0
    2.8625   -3.2042    0.0000 C   0  0  0  0  0  0  0  0  0  0  0  0
    2.8625   -1.5542    0.0000 C   0  0  0  0  0  0  0  0  0  0  0  0
    8.5667   -0.7125    0.0000 C   0  0  0  0  0  0  0  0  0  0  0  0
    2.1500   -2.7917    0.0000 C   0  0  0  0  0  0  0  0  0  0  0  0
    2.1500   -1.9667    0.0000 C   0  0  0  0  0  0  0  0  0  0  0  0
    8.5750   -1.5375    0.0000 C   0  0  0  0  0  0  0  0  0  0  0  0
    5.7125   -0.7167    0.0000 C   0  0  0  0  0  0  0  0  0  0  0  0
    6.4292   -1.9542    0.0000 C   0  0  0  0  0  0  0  0  0  0  0  0
    7.1417   -1.5417    0.0000 C   0  0  0  0  0  0  0  0  0  0  0  0
    6.4250   -0.3042    0.0000 C   0  0  0  0  0  0  0  0  0  0  0  0
    7.8542    0.5250    0.0000 O   0  0  0  0  0  0  0  0  0  0  0  0
    4.2917   -4.0292    0.0000 N   0  0  0  0  0  0  0  0  0  0  0  0
    9.2917   -1.9500    0.0000 C   0  0  0  0  0  0  0  0  0  0  0  0
   10.7167   -2.7667    0.0000 C   0  0  0  0  0  0  0  0  0  0  0  0
    1.4292   -3.2042    0.0000 O   0  0  0  0  0  0  0  0  0  0  0  0
    1.4375   -1.5542    0.0000 O   0  0  0  0  0  0  0  0  0  0  0  0
   11.4292   -3.1792    0.0000 F   0  0  0  0  0  0  0  0  0  0  0  0
   10.0000   -1.5292    0.0000 C   0  0  0  0  0  0  0  0  0  0  0  0
    9.2875   -2.7750    0.0000 C   0  0  0  0  0  0  0  0  0  0  0  0
   10.0042   -3.1792    0.0000 C   0  0  0  0  0  0  0  0  0  0  0  0
   10.7042   -1.9417    0.0000 C   0  0  0  0  0  0  0  0  0  0  0  0
    0.7167   -2.7917    0.0000 C   0  0  0  0  0  0  0  0  0  0  0  0
    0.7167   -1.9667    0.0000 C   0  0  0  0  0  0  0  0  0  0  0  0
  2  1  1  0
  3  6  1  0
  4  2  2  0
  5  1  2  0
  6  5  1  0
  7  1  1  0
  8 18  1  0
  9  8  1  0
 10  3  2  0
 11  6  2  0
 12  9  1  0
 13 14  2  0
 14 11  1  0
 15 12  2  0
 16  7  1  0
 17  7  1  0
 18 17  1  0
 19 16  1  0
 20  9  2  0
 21  4  1  0
 22 15  1  0
 23 29  2  0
 24 13  1  0
 25 14  1  0
 26 23  1  0
 27 22  1  0
 28 22  2  0
 29 28  1  0
 30 27  2  0
 31 24  1  0
 32 25  1  0
  3  4  1  0
 19  8  1  0
 10 13  1  0
 30 23  1  0
M  END

> <chembl_id>
CHEMBL6358

> <chembl_pref_name>
None

$$$$

     RDKit          2D

 32 35  0  0  0  0  0  0  0  0999 V2000
    1.0271   -0.2836    0.0000 C   0  0  0  0  0  0  0  0  0  0  0  0
    1.0271   -1.1086    0.0000 N   0  0  0  0  0  0  0  0  0  0  0  0
    2.4560   -1.1086    0.0000 C   0  0  0  0  0  0  0  0  0  0  0  0
    1.7415   -1.5211    0.0000 C   0  0  0  0  0  0  0  0  0  0  0  0
    1.7415    0.1289    0.0000 N   0  0  0  0  0  0  0  0  0  0  0  0
    2.4560   -0.2836    0.0000 C   0  0  0  0  0  0  0  0  0  0  0  0
    0.3126    0.1289    0.0000 N   0  0  0  0  0  0  0  0  0  0  0  0
   -1.1164    0.9539    0.0000 N   0  0  0  0  0  0  0  0  0  0  0  0
   -1.8308    1.3664    0.0000 C   0  0  0  0  0  0  0  0  0  0  0  0
    3.1705   -1.5211    0.0000 C   0  0  0  0  0  0  0  0  0  0  0  0
    3.1705    0.1289    0.0000 C   0  0  0  0  0  0  0  0  0  0  0  0
   -2.5453    0.9539    0.0000 C   0  0  0  0  0  0  0  0  0  0  0  0
    3.8849   -1.1086    0.0000 C   0  0  0  0  0  0  0  0  0  0  0  0
    3.8849   -0.2836    0.0000 C   0  0  0  0  0  0  0  0  0  0  0  0
   -3.2598    1.3664    0.0000 C   0  0  0  0  0  0  0  0  0  0  0  0
   -0.4019   -0.2836    0.0000 C   0  0  0  0  0  0  0  0  0  0  0  0
    0.3126    0.9539    0.0000 C   0  0  0  0  0  0  0  0  0  0  0  0
   -0.4019    1.3664    0.0000 C   0  0  0  0  0  0  0  0  0  0  0  0
   -1.1164    0.1289    0.0000 C   0  0  0  0  0  0  0  0  0  0  0  0
   -1.8308    2.1914    0.0000 O   0  0  0  0  0  0  0  0  0  0  0  0
    1.7415   -2.3461    0.0000 N   0  0  0  0  0  0  0  0  0  0  0  0
   -3.9742    0.9539    0.0000 C   0  0  0  0  0  0  0  0  0  0  0  0
   -5.4032    0.1289    0.0000 C   0  0  0  0  0  0  0  0  0  0  0  0
    4.5994   -1.5211    0.0000 O   0  0  0  0  0  0  0  0  0  0  0  0
    4.5994    0.1289    0.0000 O   0  0  0  0  0  0  0  0  0  0  0  0
   -6.1177   -0.2836    0.0000 Cl  0  0  0  0  0  0  0  0  0  0  0  0
   -3.9742    0.1289    0.0000 C   0  0  0  0  0  0  0  0  0  0  0  0
   -4.6887    1.3664    0.0000 C   0  0  0  0  0  0  0  0  0  0  0  0
   -5.4032    0.9539    0.0000 C   0  0  0  0  0  0  0  0  0  0  0  0
   -4.6887   -0.2836    0.0000 C   0  0  0  0  0  0  0  0  0  0  0  0
    5.3139   -1.1086    0.0000 C   0  0  0  0  0  0  0  0  0  0  0  0
    5.3139   -0.2836    0.0000 C   0  0  0  0  0  0  0  0  0  0  0  0
  1  2  2  0
  2  4  1  0
  3  4  2  0
  1  5  1  0
  3  6  1  0
  5  6  2  0
  1  7  1  0
  8  9  1  0
  3 10  1  0
  6 11  1  0
  9 12  1  0
 10 13  2  0
 11 14  2  0
 13 14  1  0
 12 15  2  0
  7 16  1  0
  7 17  1  0
  8 18  1  0
 17 18  1  0
  8 19  1  0
 16 19  1  0
  9 20  2  0
  4 21  1  0
 15 22  1  0
 13 24  1  0
 14 25  1  0
 23 26  1  0
 22 27  2  0
 22 28  1  0
 23 29  1  0
 28 29  2  0
 23 30  2  0
 27 30  1  0
 24 31  1  0
 25 32  1  0
M  END

> <chembl_id>
CHEMBL6351

> <chembl_pref_name>
None

$$$$

     RDKit          2D

 32 35  0  0  0  0  0  0  0  0999 V2000
    1.9667   -1.4250    0.0000 C   0  0  0  0  0  0  0  0  0  0  0  0
    1.9750   -2.2542    0.0000 N   0  0  0  0  0  0  0  0  0  0  0  0
    0.5417   -2.2542    0.0000 C   0  0  0  0  0  0  0  0  0  0  0  0
    1.2625   -2.6667    0.0000 C   0  0  0  0  0  0  0  0  0  0  0  0
    1.2542   -1.0167    0.0000 N   0  0  0  0  0  0  0  0  0  0  0  0
    0.5417   -1.4292    0.0000 C   0  0  0  0  0  0  0  0  0  0  0  0
    4.8250    0.2333    0.0000 C   0  0  0  0  0  0  0  0  0  0  0  0
    2.6792   -1.0125    0.0000 N   0  0  0  0  0  0  0  0  0  0  0  0
    5.5375   -0.1792    0.0000 C   0  0  0  0  0  0  0  0  0  0  0  0
    4.1042   -0.1792    0.0000 N   0  0  0  0  0  0  0  0  0  0  0  0
   -0.1708   -2.6750    0.0000 C   0  0  0  0  0  0  0  0  0  0  0  0
   -0.1708   -1.0167    0.0000 C   0  0  0  0  0  0  0  0  0  0  0  0
    5.5417   -1.0042    0.0000 C   0  0  0  0  0  0  0  0  0  0  0  0
   -0.8833   -2.2625    0.0000 C   0  0  0  0  0  0  0  0  0  0  0  0
   -0.8833   -1.4375    0.0000 C   0  0  0  0  0  0  0  0  0  0  0  0
    2.6792   -0.1875    0.0000 C   0  0  0  0  0  0  0  0  0  0  0  0
    3.4000   -1.4167    0.0000 C   0  0  0  0  0  0  0  0  0  0  0  0
    4.1125   -1.0042    0.0000 C   0  0  0  0  0  0  0  0  0  0  0  0
    3.3917    0.2333    0.0000 C   0  0  0  0  0  0  0  0  0  0  0  0
    4.8167    1.0583    0.0000 O   0  0  0  0  0  0  0  0  0  0  0  0
    1.2542   -3.4917    0.0000 N   0  0  0  0  0  0  0  0  0  0  0  0
    6.2542    0.2333    0.0000 F   0  0  0  0  0  0  0  0  0  0  0  0
    6.2542   -1.4167    0.0000 C   0  0  0  0  0  0  0  0  0  0  0  0
   -1.6000   -2.6750    0.0000 O   0  0  0  0  0  0  0  0  0  0  0  0
   -1.5958   -1.0250    0.0000 O   0  0  0  0  0  0  0  0  0  0  0  0
    6.9667   -1.0000    0.0000 C   0  0  0  0  0  0  0  0  0  0  0  0
    6.2542   -2.2417    0.0000 C   0  0  0  0  0  0  0  0  0  0  0  0
   -2.3125   -1.4375    0.0000 C   0  0  0  0  0  0  0  0  0  0  0  0
   -2.3125   -2.2625    0.0000 C   0  0  0  0  0  0  0  0  0  0  0  0
    6.9667   -2.6500    0.0000 C   0  0  0  0  0  0  0  0  0  0  0  0
    7.6792   -1.4042    0.0000 C   0  0  0  0  0  0  0  0  0  0  0  0
    7.6792   -2.2375    0.0000 C   0  0  0  0  0  0  0  0  0  0  0  0
  2  1  1  0
  3  6  1  0
  4  2  2  0
  5  1  2  0
  6  5  1  0
  7 10  1  0
  8  1  1  0
  9  7  1  0
 10 18  1  0
 11  3  2  0
 12  6  2  0
 13  9  2  0
 14 15  2  0
 15 12  1  0
 16  8  1  0
 17  8  1  0
 18 17  1  0
 19 16  1  0
 20  7  2  0
 21  4  1  0
 22  9  1  0
 23 13  1  0
 24 14  1  0
 25 15  1  0
 26 23  1  0
 27 23  2  0
 28 25  1  0
 29 24  1  0
 30 27  1  0
 31 26  2  0
 32 30  2  0
  3  4  1  0
 19 10  1  0
 11 14  1  0
 31 32  1  0
M  END

> <chembl_id>
CHEMBL6342

> <chembl_pref_name>
None

$$$$

     RDKit          2D

 30 33  0  0  0  0  0  0  0  0999 V2000
    1.9667   -1.4250    0.0000 C   0  0  0  0  0  0  0  0  0  0  0  0
    1.9750   -2.2542    0.0000 N   0  0  0  0  0  0  0  0  0  0  0  0
    0.5417   -2.2542    0.0000 C   0  0  0  0  0  0  0  0  0  0  0  0
    1.2625   -2.6667    0.0000 C   0  0  0  0  0  0  0  0  0  0  0  0
    1.2542   -1.0167    0.0000 N   0  0  0  0  0  0  0  0  0  0  0  0
    4.8250    0.2333    0.0000 C   0  0  0  0  0  0  0  0  0  0  0  0
    0.5417   -1.4292    0.0000 C   0  0  0  0  0  0  0  0  0  0  0  0
    2.6792   -1.0125    0.0000 N   0  0  0  0  0  0  0  0  0  0  0  0
    4.1042   -0.1792    0.0000 N   0  0  0  0  0  0  0  0  0  0  0  0
   -0.1708   -2.6750    0.0000 C   0  0  0  0  0  0  0  0  0  0  0  0
   -0.1708   -1.0167    0.0000 C   0  0  0  0  0  0  0  0  0  0  0  0
    5.5375   -0.1792    0.0000 N   0  0  0  0  0  0  0  0  0  0  0  0
   -0.8833   -2.2625    0.0000 C   0  0  0  0  0  0  0  0  0  0  0  0
   -0.8833   -1.4375    0.0000 C   0  0  0  0  0  0  0  0  0  0  0  0
    4.8167    1.0583    0.0000 O   0  0  0  0  0  0  0  0  0  0  0  0
    2.6792   -0.1875    0.0000 C   0  0  0  0  0  0  0  0  0  0  0  0
    3.4000   -1.4167    0.0000 C   0  0  0  0  0  0  0  0  0  0  0  0
    4.1125   -1.0042    0.0000 C   0  0  0  0  0  0  0  0  0  0  0  0
    3.3917    0.2333    0.0000 C   0  0  0  0  0  0  0  0  0  0  0  0
    1.2542   -3.4917    0.0000 N   0  0  0  0  0  0  0  0  0  0  0  0
    6.2542    0.2333    0.0000 C   0  0  0  0  0  0  0  0  0  0  0  0
   -1.6000   -2.6750    0.0000 O   0  0  0  0  0  0  0  0  0  0  0  0
   -1.5958   -1.0250    0.0000 O   0  0  0  0  0  0  0  0  0  0  0  0
    6.9667   -0.1792    0.0000 C   0  0  0  0  0  0  0  0  0  0  0  0
    6.2500    1.0583    0.0000 C   0  0  0  0  0  0  0  0  0  0  0  0
   -2.3125   -1.4375    0.0000 C   0  0  0  0  0  0  0  0  0  0  0  0
   -2.3125   -2.2625    0.0000 C   0  0  0  0  0  0  0  0  0  0  0  0
    6.9542    1.4708    0.0000 C   0  0  0  0  0  0  0  0  0  0  0  0
    7.6792    0.2333    0.0000 C   0  0  0  0  0  0  0  0  0  0  0  0
    7.6792    1.0583    0.0000 C   0  0  0  0  0  0  0  0  0  0  0  0
  2  1  1  0
  3  7  1  0
  4  2  2  0
  5  1  2  0
  6  9  1  0
  7  5  1  0
  8  1  1  0
  9 18  1  0
 10  3  2  0
 11  7  2  0
 12  6  1  0
 13 14  2  0
 14 11  1  0
 15  6  2  0
 16  8  1  0
 17  8  1  0
 18 17  1  0
 19 16  1  0
 20  4  1  0
 21 12  1  0
 22 13  1  0
 23 14  1  0
 24 21  2  0
 25 21  1  0
 26 23  1  0
 27 22  1  0
 28 25  2  0
 29 24  1  0
 30 28  1  0
  3  4  1  0
 19  9  1  0
 10 13  1  0
 29 30  2  0
M  END

> <chembl_id>
CHEMBL6218

> <chembl_pref_name>
None

$$$$

     RDKit          2D

 40 43  0  0  0  0  0  0  0  0999 V2000
    1.9667   -1.4250    0.0000 C   0  0  0  0  0  0  0  0  0  0  0  0
    1.9750   -2.2542    0.0000 N   0  0  0  0  0  0  0  0  0  0  0  0
    0.5417   -2.2542    0.0000 C   0  0  0  0  0  0  0  0  0  0  0  0
    1.2625   -2.6667    0.0000 C   0  0  0  0  0  0  0  0  0  0  0  0
    1.2542   -1.0167    0.0000 N   0  0  0  0  0  0  0  0  0  0  0  0
    0.5417   -1.4292    0.0000 C   0  0  0  0  0  0  0  0  0  0  0  0
    2.6792   -1.0125    0.0000 N   0  0  0  0  0  0  0  0  0  0  0  0
    4.1042   -0.1792    0.0000 N   0  0  0  0  0  0  0  0  0  0  0  0
    4.8250    0.2333    0.0000 C   0  0  0  0  0  0  0  0  0  0  0  0
   -0.1708   -2.6750    0.0000 C   0  0  0  0  0  0  0  0  0  0  0  0
   -0.1708   -1.0167    0.0000 C   0  0  0  0  0  0  0  0  0  0  0  0
    5.5375   -0.1792    0.0000 C   0  0  0  0  0  0  0  0  0  0  0  0
   -0.8833   -2.2625    0.0000 C   0  0  0  0  0  0  0  0  0  0  0  0
   -0.8833   -1.4375    0.0000 C   0  0  0  0  0  0  0  0  0  0  0  0
    9.1125   -2.2292    0.0000 C   0  0  0  0  0  0  0  0  0  0  0  0
    9.8292   -2.6417    0.0000 C   0  0  0  0  0  0  0  0  0  0  0  0
    9.8292   -3.4667    0.0000 C   0  0  0  0  0  0  0  0  0  0  0  0
   10.5500   -3.8750    0.0000 C   0  0  0  0  0  0  0  0  0  0  0  0
    5.5417   -1.0042    0.0000 C   0  0  0  0  0  0  0  0  0  0  0  0
    8.4000   -2.6417    0.0000 N   0  0  0  0  0  0  0  0  0  0  0  0
    3.4000   -1.4167    0.0000 C   0  0  0  0  0  0  0  0  0  0  0  0
    2.6792   -0.1875    0.0000 C   0  0  0  0  0  0  0  0  0  0  0  0
    3.3917    0.2333    0.0000 C   0  0  0  0  0  0  0  0  0  0  0  0
    4.1125   -1.0042    0.0000 C   0  0  0  0  0  0  0  0  0  0  0  0
    4.8167    1.0583    0.0000 O   0  0  0  0  0  0  0  0  0  0  0  0
    9.1125   -1.4042    0.0000 O   0  0  0  0  0  0  0  0  0  0  0  0
   10.5500   -4.7000    0.0000 O   0  0  0  0  0  0  0  0  0  0  0  0
    1.2542   -3.4917    0.0000 N   0  0  0  0  0  0  0  0  0  0  0  0
    6.2542   -1.4167    0.0000 C   0  0  0  0  0  0  0  0  0  0  0  0
    7.6792   -2.2375    0.0000 C   0  0  0  0  0  0  0  0  0  0  0  0
   -1.6000   -2.6750    0.0000 O   0  0  0  0  0  0  0  0  0  0  0  0
   -1.5958   -1.0250    0.0000 O   0  0  0  0  0  0  0  0  0  0  0  0
   11.2625   -3.4625    0.0000 O   0  0  0  0  0  0  0  0  0  0  0  0
    6.2542   -2.2417    0.0000 C   0  0  0  0  0  0  0  0  0  0  0  0
    6.9667   -1.0000    0.0000 C   0  0  0  0  0  0  0  0  0  0  0  0
    7.6792   -1.4042    0.0000 C   0  0  0  0  0  0  0  0  0  0  0  0
    6.9667   -2.6500    0.0000 C   0  0  0  0  0  0  0  0  0  0  0  0
   -2.3125   -1.4375    0.0000 C   0  0  0  0  0  0  0  0  0  0  0  0
   -2.3125   -2.2625    0.0000 C   0  0  0  0  0  0  0  0  0  0  0  0
   11.9792   -3.8667    0.0000 C   0  0  0  0  0  0  0  0  0  0  0  0
  2  1  1  0
  3  6  1  0
  4  2  2  0
  5  1  2  0
  6  5  1  0
  7  1  1  0
  8 23  1  0
  9  8  1  0
 10  3  2  0
 11  6  2  0
 12  9  1  0
 13 14  2  0
 14 11  1  0
 15 20  1  0
 16 15  1  0
 17 16  2  0
 18 17  1  0
 19 12  2  0
 20 30  1  0
 21  7  1  0
 22  7  1  0
 23 22  1  0
 24 21  1  0
 25  9  2  0
 26 15  2  0
 27 18  2  0
 28  4  1  0
 29 19  1  0
 30 36  1  0
 31 13  1  0
 32 14  1  0
 33 18  1  0
 34 29  2  0
 35 29  1  0
 36 35  2  0
 37 34  1  0
 38 32  1  0
 39 31  1  0
 40 33  1  0
  4  3  1  0
 24  8  1  0
 13 10  1  0
 37 30  2  0
M  END

> <chembl_id>
CHEMBL6219

> <chembl_pref_name>
None

$$$$

     RDKit          2D

 30 33  0  0  0  0  0  0  0  0999 V2000
    1.9667   -1.4250    0.0000 C   0  0  0  0  0  0  0  0  0  0  0  0
    1.9750   -2.2542    0.0000 N   0  0  0  0  0  0  0  0  0  0  0  0
    0.5417   -2.2542    0.0000 C   0  0  0  0  0  0  0  0  0  0  0  0
    1.2625   -2.6667    0.0000 C   0  0  0  0  0  0  0  0  0  0  0  0
    1.2542   -1.0167    0.0000 N   0  0  0  0  0  0  0  0  0  0  0  0
    4.8250    0.2333    0.0000 C   0  0  0  0  0  0  0  0  0  0  0  0
    0.5417   -1.4292    0.0000 C   0  0  0  0  0  0  0  0  0  0  0  0
    2.6792   -1.0125    0.0000 N   0  0  0  0  0  0  0  0  0  0  0  0
    4.1042   -0.1792    0.0000 N   0  0  0  0  0  0  0  0  0  0  0  0
   -0.1708   -2.6750    0.0000 C   0  0  0  0  0  0  0  0  0  0  0  0
   -0.1708   -1.0167    0.0000 C   0  0  0  0  0  0  0  0  0  0  0  0
    5.5375   -0.1792    0.0000 N   0  0  0  0  0  0  0  0  0  0  0  0
   -0.8833   -2.2625    0.0000 C   0  0  0  0  0  0  0  0  0  0  0  0
   -0.8833   -1.4375    0.0000 C   0  0  0  0  0  0  0  0  0  0  0  0
    4.8167    1.0583    0.0000 S   0  0  0  0  0  0  0  0  0  0  0  0
    2.6792   -0.1875    0.0000 C   0  0  0  0  0  0  0  0  0  0  0  0
    3.4000   -1.4167    0.0000 C   0  0  0  0  0  0  0  0  0  0  0  0
    4.1125   -1.0042    0.0000 C   0  0  0  0  0  0  0  0  0  0  0  0
    3.3917    0.2333    0.0000 C   0  0  0  0  0  0  0  0  0  0  0  0
    1.2542   -3.4917    0.0000 N   0  0  0  0  0  0  0  0  0  0  0  0
    6.2542    0.2333    0.0000 C   0  0  0  0  0  0  0  0  0  0  0  0
   -1.6000   -2.6750    0.0000 O   0  0  0  0  0  0  0  0  0  0  0  0
   -1.5958   -1.0250    0.0000 O   0  0  0  0  0  0  0  0  0  0  0  0
   -2.3125   -1.4375    0.0000 C   0  0  0  0  0  0  0  0  0  0  0  0
   -2.3125   -2.2625    0.0000 C   0  0  0  0  0  0  0  0  0  0  0  0
    6.9667   -0.1792    0.0000 C   0  0  0  0  0  0  0  0  0  0  0  0
    6.2500    1.0583    0.0000 C   0  0  0  0  0  0  0  0  0  0  0  0
    6.9542    1.4708    0.0000 C   0  0  0  0  0  0  0  0  0  0  0  0
    7.6792    0.2333    0.0000 C   0  0  0  0  0  0  0  0  0  0  0  0
    7.6792    1.0583    0.0000 C   0  0  0  0  0  0  0  0  0  0  0  0
  2  1  2  0
  3  7  1  0
  4  2  1  0
  5  1  1  0
  6  9  1  0
  7  5  2  0
  8  1  1  0
  9 18  1  0
 10  3  1  0
 11  7  1  0
 12  6  2  0
 13 14  1  0
 14 11  2  0
 15  6  1  0
 16  8  1  0
 17  8  1  0
 18 17  1  0
 19 16  1  0
 20  4  1  0
 21 12  1  0
 22 13  1  0
 23 14  1  0
 24 23  1  0
 25 22  1  0
 26 21  1  0
 27 21  1  0
 28 27  1  0
 29 26  1  0
 30 28  1  0
  3  4  2  0
 19  9  1  0
 10 13  2  0
 29 30  1  0
M  END

> <chembl_id>
CHEMBL6208

> <chembl_pref_name>
None

$$$$

     RDKit          2D

 31 35  0  0  0  0  0  0  0  0999 V2000
    1.9750   -1.4292    0.0000 C   0  0  0  0  0  0  0  0  0  0  0  0
    1.9750   -2.2542    0.0000 N   0  0  0  0  0  0  0  0  0  0  0  0
    5.5625   -0.1667    0.0000 C   0  0  0  0  0  0  0  0  0  0  0  0
    0.5417   -2.2542    0.0000 C   0  0  0  0  0  0  0  0  0  0  0  0
    4.8417    0.2333    0.0000 C   0  0  0  0  0  0  0  0  0  0  0  0
    1.2542   -2.6667    0.0000 C   0  0  0  0  0  0  0  0  0  0  0  0
    1.2542   -1.0167    0.0000 N   0  0  0  0  0  0  0  0  0  0  0  0
    0.5417   -1.4292    0.0000 C   0  0  0  0  0  0  0  0  0  0  0  0
    2.6917   -1.0167    0.0000 N   0  0  0  0  0  0  0  0  0  0  0  0
    4.1167   -0.1917    0.0000 N   0  0  0  0  0  0  0  0  0  0  0  0
   -0.1708   -2.6667    0.0000 C   0  0  0  0  0  0  0  0  0  0  0  0
   -0.1708   -1.0167    0.0000 C   0  0  0  0  0  0  0  0  0  0  0  0
    5.6667   -0.9042    0.0000 C   0  0  0  0  0  0  0  0  0  0  0  0
   -0.8833   -2.2542    0.0000 C   0  0  0  0  0  0  0  0  0  0  0  0
   -0.8833   -1.4375    0.0000 C   0  0  0  0  0  0  0  0  0  0  0  0
    6.3500    0.1750    0.0000 C   0  0  0  0  0  0  0  0  0  0  0  0
    7.0750   -0.1500    0.0000 C   0  0  0  0  0  0  0  0  0  0  0  0
    7.2250   -0.9000    0.0000 C   0  0  0  0  0  0  0  0  0  0  0  0
    4.8375    1.0583    0.0000 O   0  0  0  0  0  0  0  0  0  0  0  0
    2.6917   -0.1917    0.0000 C   0  0  0  0  0  0  0  0  0  0  0  0
    3.4042   -1.4292    0.0000 C   0  0  0  0  0  0  0  0  0  0  0  0
    4.1167   -1.0167    0.0000 C   0  0  0  0  0  0  0  0  0  0  0  0
    3.4042    0.2208    0.0000 C   0  0  0  0  0  0  0  0  0  0  0  0
    6.4917   -0.5542    0.0000 C   0  0  0  0  0  0  0  0  0  0  0  0
    1.2542   -3.4917    0.0000 N   0  0  0  0  0  0  0  0  0  0  0  0
    6.3875    1.0583    0.0000 C   0  0  0  0  0  0  0  0  0  0  0  0
   -1.6083   -2.6792    0.0000 O   0  0  0  0  0  0  0  0  0  0  0  0
   -1.6083   -1.0167    0.0000 O   0  0  0  0  0  0  0  0  0  0  0  0
    6.6250    0.4583    0.0000 C   0  0  0  0  0  0  0  0  0  0  0  0
   -2.3250   -2.2667    0.0000 C   0  0  0  0  0  0  0  0  0  0  0  0
   -2.3208   -1.4375    0.0000 C   0  0  0  0  0  0  0  0  0  0  0  0
  2  1  1  0
  3  5  1  0
  4  8  1  0
  5 10  1  0
  6  2  2  0
  7  1  2  0
  8  7  1  0
  9  1  1  0
 10 22  1  0
 11  4  2  0
 12  8  2  0
 13  3  2  0
 14 15  2  0
 15 12  1  0
 16  3  1  0
 17 16  1  0
 18 17  2  0
 19  5  2  0
 20  9  1  0
 21  9  1  0
 22 21  1  0
 23 20  1  0
 24 13  1  0
 25  6  1  0
 26 16  1  0
 27 14  1  0
 28 15  1  0
 29 26  1  0
 30 27  1  0
 31 28  1  0
  4  6  1  0
 23 10  1  0
 11 14  1  0
 24 18  1  0
 24 29  1  0
M  END

> <chembl_id>
CHEMBL429379

> <chembl_pref_name>
None

$$$$

     RDKit          2D

 31 34  0  0  0  0  0  0  0  0999 V2000
    4.8417    0.2333    0.0000 S   0  0  0  0  0  0  0  0  0  0  0  0
    1.9750   -1.4292    0.0000 C   0  0  0  0  0  0  0  0  0  0  0  0
    1.9750   -2.2542    0.0000 N   0  0  0  0  0  0  0  0  0  0  0  0
    0.5417   -2.2542    0.0000 C   0  0  0  0  0  0  0  0  0  0  0  0
    1.2542   -2.6667    0.0000 C   0  0  0  0  0  0  0  0  0  0  0  0
    4.1167   -0.1917    0.0000 N   0  0  0  0  0  0  0  0  0  0  0  0
    1.2542   -1.0167    0.0000 N   0  0  0  0  0  0  0  0  0  0  0  0
    0.5417   -1.4292    0.0000 C   0  0  0  0  0  0  0  0  0  0  0  0
    2.6917   -1.0167    0.0000 N   0  0  0  0  0  0  0  0  0  0  0  0
   -0.1708   -2.6667    0.0000 C   0  0  0  0  0  0  0  0  0  0  0  0
   -0.1708   -1.0167    0.0000 C   0  0  0  0  0  0  0  0  0  0  0  0
    5.5625    0.6500    0.0000 C   0  0  0  0  0  0  0  0  0  0  0  0
   -0.8833   -2.2542    0.0000 C   0  0  0  0  0  0  0  0  0  0  0  0
   -0.8833   -1.4375    0.0000 C   0  0  0  0  0  0  0  0  0  0  0  0
    5.2625   -0.4917    0.0000 O   0  0  0  0  0  0  0  0  0  0  0  0
    4.4167    0.9500    0.0000 O   0  0  0  0  0  0  0  0  0  0  0  0
    4.1167   -1.0167    0.0000 C   0  0  0  0  0  0  0  0  0  0  0  0
    3.4042    0.2208    0.0000 C   0  0  0  0  0  0  0  0  0  0  0  0
    3.4042   -1.4292    0.0000 C   0  0  0  0  0  0  0  0  0  0  0  0
    2.6917   -0.1917    0.0000 C   0  0  0  0  0  0  0  0  0  0  0  0
    1.2542   -3.4917    0.0000 N   0  0  0  0  0  0  0  0  0  0  0  0
    6.2750    0.2375    0.0000 C   0  0  0  0  0  0  0  0  0  0  0  0
    5.5542    1.4833    0.0000 C   0  0  0  0  0  0  0  0  0  0  0  0
   -1.6083   -2.6792    0.0000 O   0  0  0  0  0  0  0  0  0  0  0  0
   -1.6083   -1.0167    0.0000 O   0  0  0  0  0  0  0  0  0  0  0  0
    6.2667    1.8958    0.0000 C   0  0  0  0  0  0  0  0  0  0  0  0
    6.9917    0.6500    0.0000 C   0  0  0  0  0  0  0  0  0  0  0  0
    6.9875    1.4833    0.0000 C   0  0  0  0  0  0  0  0  0  0  0  0
    7.7042    1.9000    0.0000 C   0  0  0  0  0  0  0  0  0  0  0  0
   -2.3208   -1.4375    0.0000 C   0  0  0  0  0  0  0  0  0  0  0  0
   -2.3250   -2.2667    0.0000 C   0  0  0  0  0  0  0  0  0  0  0  0
  2  9  1  0
  3  2  1  0
  4  8  1  0
  5  3  2  0
  6  1  1  0
  7  2  2  0
  8  7  1  0
  9 20  1  0
 10  4  2  0
 11  8  2  0
 12  1  1  0
 13 14  2  0
 14 11  1  0
 15  1  2  0
 16  1  2  0
 17  6  1  0
 18  6  1  0
 19 17  1  0
 20 18  1  0
 21  5  1  0
 22 12  2  0
 23 12  1  0
 24 13  1  0
 25 14  1  0
 26 23  2  0
 27 22  1  0
 28 26  1  0
 29 28  1  0
 30 25  1  0
 31 24  1  0
  9 19  1  0
 27 28  2  0
  4  5  1  0
 10 13  1  0
M  END

> <chembl_id>
CHEMBL415285

> <chembl_pref_name>
None

$$$$

     RDKit          2D

 30 33  0  0  0  0  0  0  0  0999 V2000
    1.9667   -1.4250    0.0000 C   0  0  0  0  0  0  0  0  0  0  0  0
    1.9750   -2.2542    0.0000 N   0  0  0  0  0  0  0  0  0  0  0  0
    0.5417   -2.2542    0.0000 C   0  0  0  0  0  0  0  0  0  0  0  0
    1.2625   -2.6667    0.0000 C   0  0  0  0  0  0  0  0  0  0  0  0
    1.2542   -1.0167    0.0000 N   0  0  0  0  0  0  0  0  0  0  0  0
    4.8250    0.2333    0.0000 C   0  0  0  0  0  0  0  0  0  0  0  0
    0.5417   -1.4292    0.0000 C   0  0  0  0  0  0  0  0  0  0  0  0
    2.6792   -1.0125    0.0000 N   0  0  0  0  0  0  0  0  0  0  0  0
    4.1042   -0.1792    0.0000 N   0  0  0  0  0  0  0  0  0  0  0  0
   -0.1708   -2.6750    0.0000 C   0  0  0  0  0  0  0  0  0  0  0  0
   -0.1708   -1.0167    0.0000 C   0  0  0  0  0  0  0  0  0  0  0  0
    5.5375   -0.1792    0.0000 N   0  0  0  0  0  0  0  0  0  0  0  0
   -0.8833   -2.2625    0.0000 C   0  0  0  0  0  0  0  0  0  0  0  0
   -0.8833   -1.4375    0.0000 C   0  0  0  0  0  0  0  0  0  0  0  0
    4.8167    1.0583    0.0000 S   0  0  0  0  0  0  0  0  0  0  0  0
    2.6792   -0.1875    0.0000 C   0  0  0  0  0  0  0  0  0  0  0  0
    3.4000   -1.4167    0.0000 C   0  0  0  0  0  0  0  0  0  0  0  0
    4.1125   -1.0042    0.0000 C   0  0  0  0  0  0  0  0  0  0  0  0
    3.3917    0.2333    0.0000 C   0  0  0  0  0  0  0  0  0  0  0  0
    1.2542   -3.4917    0.0000 N   0  0  0  0  0  0  0  0  0  0  0  0
    6.2542    0.2333    0.0000 C   0  0  0  0  0  0  0  0  0  0  0  0
   -1.6000   -2.6750    0.0000 O   0  0  0  0  0  0  0  0  0  0  0  0
   -1.5958   -1.0250    0.0000 O   0  0  0  0  0  0  0  0  0  0  0  0
    6.9667   -0.1792    0.0000 C   0  0  0  0  0  0  0  0  0  0  0  0
    6.2500    1.0583    0.0000 C   0  0  0  0  0  0  0  0  0  0  0  0
   -2.3125   -1.4375    0.0000 C   0  0  0  0  0  0  0  0  0  0  0  0
   -2.3125   -2.2625    0.0000 C   0  0  0  0  0  0  0  0  0  0  0  0
    6.9542    1.4708    0.0000 C   0  0  0  0  0  0  0  0  0  0  0  0
    7.6792    0.2333    0.0000 C   0  0  0  0  0  0  0  0  0  0  0  0
    7.6792    1.0583    0.0000 C   0  0  0  0  0  0  0  0  0  0  0  0
  2  1  2  0
  3  7  1  0
  4  2  1  0
  5  1  1  0
  6  9  1  0
  7  5  2  0
  8  1  1  0
  9 18  1  0
 10  3  1  0
 11  7  1  0
 12  6  2  0
 13 14  1  0
 14 11  2  0
 15  6  1  0
 16  8  1  0
 17  8  1  0
 18 17  1  0
 19 16  1  0
 20  4  1  0
 21 12  1  0
 22 13  1  0
 23 14  1  0
 24 21  2  0
 25 21  1  0
 26 23  1  0
 27 22  1  0
 28 25  2  0
 29 24  1  0
 30 28  1  0
  3  4  2  0
 19  9  1  0
 10 13  2  0
 29 30  2  0
M  END

> <chembl_id>
CHEMBL264721

> <chembl_pref_name>
None

$$$$

     RDKit          2D

 21 23  0  0  0  0  0  0  0  0999 V2000
    3.8042   -1.6000    0.0000 C   0  0  0  0  0  0  0  0  0  0  0  0
    4.3167   -1.9000    0.0000 N   0  0  0  0  0  0  0  0  0  0  0  0
    3.8042   -1.0000    0.0000 N   0  0  0  0  0  0  0  0  0  0  0  0
    4.8417   -1.6000    0.0000 N   0  0  0  0  0  0  0  0  0  0  0  0
    4.8417   -1.0000    0.0000 C   0  0  0  0  0  0  0  0  0  0  0  0
    4.3167   -0.7000    0.0000 C   0  0  0  0  0  0  0  0  0  0  0  0
    4.8375   -4.5917    0.0000 C   0  0  0  0  0  0  0  0  0  0  0  0
    4.3167   -4.2917    0.0000 C   0  0  0  0  0  0  0  0  0  0  0  0
    5.3792   -4.3500    0.0000 S   0  0  0  0  0  0  0  0  0  0  0  0
    4.3167   -2.5000    0.0000 C   0  0  0  0  0  0  0  0  0  0  0  0
    3.2875   -1.8917    0.0000 O   0  0  0  0  0  0  0  0  0  0  0  0
    4.3167   -3.6917    0.0000 C   0  0  0  0  0  0  0  0  0  0  0  0
    4.9000   -5.2000    0.0000 C   0  0  0  0  0  0  0  0  0  0  0  0
    5.7792   -4.8000    0.0000 C   0  0  0  0  0  0  0  0  0  0  0  0
    3.7917   -4.5917    0.0000 O   0  0  0  0  0  0  0  0  0  0  0  0
    4.3167   -0.0917    0.0000 O   0  0  0  0  0  0  0  0  0  0  0  0
    5.4792   -5.3167    0.0000 C   0  0  0  0  0  0  0  0  0  0  0  0
    4.8375   -2.7917    0.0000 C   0  0  0  0  0  0  0  0  0  0  0  0
    3.8000   -2.7917    0.0000 C   0  0  0  0  0  0  0  0  0  0  0  0
    3.7917   -3.3917    0.0000 C   0  0  0  0  0  0  0  0  0  0  0  0
    4.8375   -3.3917    0.0000 C   0  0  0  0  0  0  0  0  0  0  0  0
  2  1  1  0
  3  1  1  0
  4  2  1  0
  5  6  1  0
  6  3  1  0
  7  8  1  0
  8 12  1  0
  9  7  1  0
 10  2  1  0
 11  1  2  0
 12 20  2  0
 13  7  2  0
 14  9  1  0
 15  8  2  0
 16  6  2  0
 17 13  1  0
 18 10  1  0
 19 10  2  0
 20 19  1  0
 21 18  2  0
  4  5  2  0
 21 12  1  0
 17 14  2  0
M  END

> <chembl_id>
CHEMBL415286

> <chembl_pref_name>
None

$$$$

     RDKit          2D

 22 24  0  0  0  0  0  0  0  0999 V2000
    3.8042   -1.6000    0.0000 C   0  0  0  0  0  0  0  0  0  0  0  0
    4.3167   -1.9000    0.0000 N   0  0  0  0  0  0  0  0  0  0  0  0
    3.8042   -1.0000    0.0000 N   0  0  0  0  0  0  0  0  0  0  0  0
    4.8417   -1.6000    0.0000 N   0  0  0  0  0  0  0  0  0  0  0  0
    4.8417   -1.0000    0.0000 C   0  0  0  0  0  0  0  0  0  0  0  0
    4.3167   -0.7000    0.0000 C   0  0  0  0  0  0  0  0  0  0  0  0
    4.3167   -2.5000    0.0000 C   0  0  0  0  0  0  0  0  0  0  0  0
    3.8000   -2.7917    0.0000 C   0  0  0  0  0  0  0  0  0  0  0  0
    4.3167   -3.6917    0.0000 C   0  0  0  0  0  0  0  0  0  0  0  0
    3.7917   -3.3917    0.0000 C   0  0  0  0  0  0  0  0  0  0  0  0
    3.2875   -1.8917    0.0000 O   0  0  0  0  0  0  0  0  0  0  0  0
    4.8375   -2.7917    0.0000 C   0  0  0  0  0  0  0  0  0  0  0  0
    4.3167   -4.2917    0.0000 C   0  0  0  0  0  0  0  0  0  0  0  0
    4.3167   -0.0917    0.0000 O   0  0  0  0  0  0  0  0  0  0  0  0
    4.8375   -3.3917    0.0000 C   0  0  0  0  0  0  0  0  0  0  0  0
    4.8375   -4.5917    0.0000 C   0  0  0  0  0  0  0  0  0  0  0  0
    3.2750   -3.6917    0.0000 C   0  0  0  0  0  0  0  0  0  0  0  0
    5.3500   -4.2917    0.0000 C   0  0  0  0  0  0  0  0  0  0  0  0
    4.8292   -5.1917    0.0000 C   0  0  0  0  0  0  0  0  0  0  0  0
    5.3542   -5.4917    0.0000 C   0  0  0  0  0  0  0  0  0  0  0  0
    5.8667   -4.5917    0.0000 C   0  0  0  0  0  0  0  0  0  0  0  0
    5.8667   -5.1917    0.0000 C   0  0  0  0  0  0  0  0  0  0  0  0
  2  1  1  0
  3  1  1  0
  4  2  1  0
  5  6  1  0
  6  3  1  0
  7  2  1  0
  8  7  2  0
  9 15  1  0
 10  8  1  0
 11  1  2  0
 12  7  1  0
 13  9  1  0
 14  6  2  0
 15 12  2  0
 16 13  1  0
 17 10  1  0
 18 16  1  0
 19 16  2  0
 20 19  1  0
 21 18  2  0
 22 20  2  0
  4  5  2  0
 10  9  2  0
 21 22  1  0
M  END

> <chembl_id>
CHEMBL6226

> <chembl_pref_name>
None

$$$$

     RDKit          2D

 25 27  0  0  0  0  0  0  0  0999 V2000
    2.5042    0.6000    0.0000 C   0  0  0  0  0  0  0  0  0  0  0  0
    3.0250    0.3000    0.0000 N   0  0  0  0  0  0  0  0  0  0  0  0
    2.5042    1.2000    0.0000 N   0  0  0  0  0  0  0  0  0  0  0  0
    3.5417    0.6000    0.0000 N   0  0  0  0  0  0  0  0  0  0  0  0
    3.0167   -1.4917    0.0000 C   0  0  0  0  0  0  0  0  0  0  0  0
    3.0250   -0.3000    0.0000 C   0  0  0  0  0  0  0  0  0  0  0  0
    2.5000   -1.1917    0.0000 C   0  0  0  0  0  0  0  0  0  0  0  0
    3.5417    1.2000    0.0000 C   0  0  0  0  0  0  0  0  0  0  0  0
    3.5375   -1.1917    0.0000 C   0  0  0  0  0  0  0  0  0  0  0  0
    3.0167   -2.0875    0.0000 C   0  0  0  0  0  0  0  0  0  0  0  0
    3.0250    1.5000    0.0000 C   0  0  0  0  0  0  0  0  0  0  0  0
    2.5000   -0.5917    0.0000 C   0  0  0  0  0  0  0  0  0  0  0  0
    3.5375   -0.5917    0.0000 C   0  0  0  0  0  0  0  0  0  0  0  0
    1.9875    0.3083    0.0000 O   0  0  0  0  0  0  0  0  0  0  0  0
    3.5375   -2.3792    0.0000 C   0  0  0  0  0  0  0  0  0  0  0  0
    2.5042   -2.3875    0.0000 O   0  0  0  0  0  0  0  0  0  0  0  0
    3.0250    2.1000    0.0000 O   0  0  0  0  0  0  0  0  0  0  0  0
    1.9750   -1.4917    0.0000 Cl  0  0  0  0  0  0  0  0  0  0  0  0
    3.5292   -2.9792    0.0000 C   0  0  0  0  0  0  0  0  0  0  0  0
    4.0500   -2.0792    0.0000 C   0  0  0  0  0  0  0  0  0  0  0  0
    4.5667   -2.9792    0.0000 C   0  0  0  0  0  0  0  0  0  0  0  0
    4.5667   -2.3792    0.0000 C   0  0  0  0  0  0  0  0  0  0  0  0
    4.0542   -3.2792    0.0000 C   0  0  0  0  0  0  0  0  0  0  0  0
    5.0875   -3.2750    0.0000 Cl  0  0  0  0  0  0  0  0  0  0  0  0
    4.0542   -1.4875    0.0000 C   0  0  0  0  0  0  0  0  0  0  0  0
  2  1  1  0
  3  1  1  0
  4  2  1  0
  5  9  1  0
  6  2  1  0
  7 12  1  0
  8 11  1  0
  9 13  2  0
 10  5  1  0
 11  3  1  0
 12  6  2  0
 13  6  1  0
 14  1  2  0
 15 10  1  0
 16 10  2  0
 17 11  2  0
 18  7  1  0
 19 15  2  0
 20 15  1  0
 21 22  1  0
 22 20  2  0
 23 19  1  0
 24 21  1  0
 25  9  1  0
  4  8  2  0
  5  7  2  0
 21 23  2  0
M  END

> <chembl_id>
CHEMBL6236

> <chembl_pref_name>
None

$$$$

     RDKit          2D

 22 24  0  0  0  0  0  0  0  0999 V2000
    2.0792   -1.9625    0.0000 C   0  0  0  0  0  0  0  0  0  0  0  0
    2.5917   -2.2625    0.0000 N   0  0  0  0  0  0  0  0  0  0  0  0
    2.0792   -1.3625    0.0000 N   0  0  0  0  0  0  0  0  0  0  0  0
    3.1125   -1.9625    0.0000 N   0  0  0  0  0  0  0  0  0  0  0  0
    3.1125   -1.3625    0.0000 C   0  0  0  0  0  0  0  0  0  0  0  0
    2.5917   -1.0625    0.0000 C   0  0  0  0  0  0  0  0  0  0  0  0
    2.5917   -2.8625    0.0000 C   0  0  0  0  0  0  0  0  0  0  0  0
    1.5417   -4.0542    0.0000 C   0  0  0  0  0  0  0  0  0  0  0  0
    2.0667   -3.7542    0.0000 C   0  0  0  0  0  0  0  0  0  0  0  0
    2.0667   -3.1542    0.0000 C   0  0  0  0  0  0  0  0  0  0  0  0
    1.5542   -2.2542    0.0000 O   0  0  0  0  0  0  0  0  0  0  0  0
    1.0292   -3.7542    0.0000 O   0  0  0  0  0  0  0  0  0  0  0  0
    2.5917   -0.4625    0.0000 O   0  0  0  0  0  0  0  0  0  0  0  0
    1.5417   -4.6542    0.0000 C   0  0  0  0  0  0  0  0  0  0  0  0
    3.1042   -3.1542    0.0000 C   0  0  0  0  0  0  0  0  0  0  0  0
    2.5875   -4.0542    0.0000 C   0  0  0  0  0  0  0  0  0  0  0  0
    3.1042   -3.7542    0.0000 C   0  0  0  0  0  0  0  0  0  0  0  0
    1.0250   -4.9542    0.0000 C   0  0  0  0  0  0  0  0  0  0  0  0
    2.0667   -4.9542    0.0000 C   0  0  0  0  0  0  0  0  0  0  0  0
    2.0667   -5.5500    0.0000 C   0  0  0  0  0  0  0  0  0  0  0  0
    1.0250   -5.5500    0.0000 C   0  0  0  0  0  0  0  0  0  0  0  0
    1.5417   -5.8542    0.0000 C   0  0  0  0  0  0  0  0  0  0  0  0
  2  1  1  0
  3  1  1  0
  4  2  1  0
  5  6  1  0
  6  3  1  0
  7  2  1  0
  8  9  1  0
  9 10  1  0
 10  7  2  0
 11  1  2  0
 12  8  2  0
 13  6  2  0
 14  8  1  0
 15  7  1  0
 16 17  1  0
 17 15  2  0
 18 14  2  0
 19 14  1  0
 20 19  2  0
 21 18  1  0
 22 20  1  0
  4  5  2  0
  9 16  2  0
 21 22  2  0
M  END

> <chembl_id>
CHEMBL6237

> <chembl_pref_name>
None

$$$$

     RDKit          2D

 25 27  0  0  0  0  0  0  0  0999 V2000
    5.2792   -2.0500    0.0000 C   0  0  0  0  0  0  0  0  0  0  0  0
    5.7917   -2.3500    0.0000 N   0  0  0  0  0  0  0  0  0  0  0  0
    5.2792   -1.4500    0.0000 N   0  0  0  0  0  0  0  0  0  0  0  0
    6.3125   -2.0500    0.0000 N   0  0  0  0  0  0  0  0  0  0  0  0
    5.7917   -2.9500    0.0000 C   0  0  0  0  0  0  0  0  0  0  0  0
    5.7875   -4.1417    0.0000 C   0  0  0  0  0  0  0  0  0  0  0  0
    6.3125   -1.4500    0.0000 C   0  0  0  0  0  0  0  0  0  0  0  0
    5.7917   -1.1500    0.0000 C   0  0  0  0  0  0  0  0  0  0  0  0
    5.2667   -3.8417    0.0000 C   0  0  0  0  0  0  0  0  0  0  0  0
    6.3042   -3.8417    0.0000 C   0  0  0  0  0  0  0  0  0  0  0  0
    5.7875   -4.7417    0.0000 C   0  0  0  0  0  0  0  0  0  0  0  0
    6.3042   -3.2417    0.0000 C   0  0  0  0  0  0  0  0  0  0  0  0
    5.2667   -3.2417    0.0000 C   0  0  0  0  0  0  0  0  0  0  0  0
    4.7542   -2.3417    0.0000 O   0  0  0  0  0  0  0  0  0  0  0  0
    6.3042   -5.0417    0.0000 C   0  0  0  0  0  0  0  0  0  0  0  0
    5.2667   -5.0417    0.0000 O   0  0  0  0  0  0  0  0  0  0  0  0
    5.7917   -0.5500    0.0000 O   0  0  0  0  0  0  0  0  0  0  0  0
    6.3042   -5.6417    0.0000 C   0  0  0  0  0  0  0  0  0  0  0  0
    6.8167   -4.7417    0.0000 C   0  0  0  0  0  0  0  0  0  0  0  0
    7.3417   -5.6417    0.0000 C   0  0  0  0  0  0  0  0  0  0  0  0
    7.3417   -5.0417    0.0000 C   0  0  0  0  0  0  0  0  0  0  0  0
    6.8250   -5.9417    0.0000 C   0  0  0  0  0  0  0  0  0  0  0  0
    7.8625   -5.9417    0.0000 Cl  0  0  0  0  0  0  0  0  0  0  0  0
    4.7417   -4.1417    0.0000 C   0  0  0  0  0  0  0  0  0  0  0  0
    6.8292   -4.1417    0.0000 C   0  0  0  0  0  0  0  0  0  0  0  0
  2  1  1  0
  3  1  1  0
  4  2  1  0
  5  2  1  0
  6  9  2  0
  7  8  1  0
  8  3  1  0
  9 13  1  0
 10 12  2  0
 11  6  1  0
 12  5  1  0
 13  5  2  0
 14  1  2  0
 15 11  1  0
 16 11  2  0
 17  8  2  0
 18 15  2  0
 19 15  1  0
 20 21  1  0
 21 19  2  0
 22 18  1  0
 23 20  1  0
 24  9  1  0
 25 10  1  0
  4  7  2  0
  6 10  1  0
 22 20  2  0
M  END

> <chembl_id>
CHEMBL6238

> <chembl_pref_name>
None

$$$$

     RDKit          2D

 25 27  0  0  0  0  0  0  0  0999 V2000
    5.2792   -2.0500    0.0000 C   0  0  0  0  0  0  0  0  0  0  0  0
    5.7917   -2.3500    0.0000 N   0  0  0  0  0  0  0  0  0  0  0  0
    5.2792   -1.4500    0.0000 N   0  0  0  0  0  0  0  0  0  0  0  0
    6.3125   -2.0500    0.0000 N   0  0  0  0  0  0  0  0  0  0  0  0
    5.7875   -4.7417    0.0000 C   0  0  0  0  0  0  0  0  0  0  0  0
    5.7875   -4.1417    0.0000 C   0  0  0  0  0  0  0  0  0  0  0  0
    6.3042   -5.0417    0.0000 C   0  0  0  0  0  0  0  0  0  0  0  0
    6.3125   -1.4500    0.0000 C   0  0  0  0  0  0  0  0  0  0  0  0
    5.7917   -1.1500    0.0000 C   0  0  0  0  0  0  0  0  0  0  0  0
    5.7917   -2.9500    0.0000 C   0  0  0  0  0  0  0  0  0  0  0  0
    5.2667   -3.8417    0.0000 C   0  0  0  0  0  0  0  0  0  0  0  0
    6.3042   -5.6417    0.0000 C   0  0  0  0  0  0  0  0  0  0  0  0
    5.2667   -3.2417    0.0000 C   0  0  0  0  0  0  0  0  0  0  0  0
    6.3042   -3.8417    0.0000 C   0  0  0  0  0  0  0  0  0  0  0  0
    6.8167   -4.7417    0.0000 C   0  0  0  0  0  0  0  0  0  0  0  0
    4.7542   -2.3417    0.0000 O   0  0  0  0  0  0  0  0  0  0  0  0
    5.2667   -5.0417    0.0000 O   0  0  0  0  0  0  0  0  0  0  0  0
    6.3042   -3.2417    0.0000 C   0  0  0  0  0  0  0  0  0  0  0  0
    6.8250   -5.9417    0.0000 C   0  0  0  0  0  0  0  0  0  0  0  0
    5.7917   -0.5500    0.0000 O   0  0  0  0  0  0  0  0  0  0  0  0
    7.3417   -5.6417    0.0000 C   0  0  0  0  0  0  0  0  0  0  0  0
    7.3417   -5.0417    0.0000 C   0  0  0  0  0  0  0  0  0  0  0  0
    7.8625   -5.9417    0.0000 Cl  0  0  0  0  0  0  0  0  0  0  0  0
    4.7417   -4.1417    0.0000 C   0  0  0  0  0  0  0  0  0  0  0  0
    5.7792   -5.9417    0.0000 C   0  0  0  0  0  0  0  0  0  0  0  0
  2  1  1  0
  3  1  1  0
  4  2  1  0
  5  6  1  0
  6 14  1  0
  7  5  1  0
  8  9  1  0
  9  3  1  0
 10  2  1  0
 11 13  1  0
 12  7  2  0
 13 10  2  0
 14 18  2  0
 15  7  1  0
 16  1  2  0
 17  5  2  0
 18 10  1  0
 19 12  1  0
 20  9  2  0
 21 22  1  0
 22 15  2  0
 23 21  1  0
 24 11  1  0
 25 12  1  0
  4  8  2  0
 11  6  2  0
 19 21  2  0
M  END

> <chembl_id>
CHEMBL266484

> <chembl_pref_name>
None

$$$$

     RDKit          2D

 18 19  0  0  0  0  0  0  0  0999 V2000
    4.2167   -1.6917    0.0000 C   0  0  0  0  0  0  0  0  0  0  0  0
    4.7292   -1.9917    0.0000 N   0  0  0  0  0  0  0  0  0  0  0  0
    4.2167   -1.0917    0.0000 N   0  0  0  0  0  0  0  0  0  0  0  0
    5.2500   -1.6917    0.0000 N   0  0  0  0  0  0  0  0  0  0  0  0
    5.2500   -1.0917    0.0000 C   0  0  0  0  0  0  0  0  0  0  0  0
    4.7292   -2.5917    0.0000 C   0  0  0  0  0  0  0  0  0  0  0  0
    4.7292   -0.7917    0.0000 C   0  0  0  0  0  0  0  0  0  0  0  0
    4.7250   -3.7875    0.0000 C   0  0  0  0  0  0  0  0  0  0  0  0
    4.2042   -3.4792    0.0000 C   0  0  0  0  0  0  0  0  0  0  0  0
    4.2042   -2.8875    0.0000 C   0  0  0  0  0  0  0  0  0  0  0  0
    5.2417   -3.4792    0.0000 C   0  0  0  0  0  0  0  0  0  0  0  0
    3.6917   -1.9875    0.0000 O   0  0  0  0  0  0  0  0  0  0  0  0
    4.7250   -4.3792    0.0000 C   0  0  0  0  0  0  0  0  0  0  0  0
    5.2417   -2.8875    0.0000 C   0  0  0  0  0  0  0  0  0  0  0  0
    4.7292   -0.1917    0.0000 O   0  0  0  0  0  0  0  0  0  0  0  0
    4.2042   -4.6875    0.0000 O   0  0  0  0  0  0  0  0  0  0  0  0
    3.6792   -3.7792    0.0000 Cl  0  0  0  0  0  0  0  0  0  0  0  0
    5.2417   -4.6792    0.0000 C   0  0  0  0  0  0  0  0  0  0  0  0
  2  1  1  0
  3  1  1  0
  4  2  1  0
  5  7  1  0
  6  2  1  0
  7  3  1  0
  8 11  1  0
  9 10  1  0
 10  6  2  0
 11 14  2  0
 12  1  2  0
 13  8  1  0
 14  6  1  0
 15  7  2  0
 16 13  2  0
 17  9  1  0
 18 13  1  0
  4  5  2  0
  9  8  2  0
M  END

> <chembl_id>
CHEMBL6239

> <chembl_pref_name>
None

$$$$

     RDKit          2D

 23 25  0  0  0  0  0  0  0  0999 V2000
    6.3417   -2.4250    0.0000 C   0  0  0  0  0  0  0  0  0  0  0  0
    6.8542   -2.7250    0.0000 N   0  0  0  0  0  0  0  0  0  0  0  0
    6.3417   -1.8250    0.0000 N   0  0  0  0  0  0  0  0  0  0  0  0
    7.3750   -2.4250    0.0000 N   0  0  0  0  0  0  0  0  0  0  0  0
    6.8500   -4.5167    0.0000 C   0  0  0  0  0  0  0  0  0  0  0  0
    7.3750   -1.8250    0.0000 C   0  0  0  0  0  0  0  0  0  0  0  0
    6.8542   -3.3250    0.0000 C   0  0  0  0  0  0  0  0  0  0  0  0
    6.8542   -1.5250    0.0000 C   0  0  0  0  0  0  0  0  0  0  0  0
    6.8500   -5.1167    0.0000 C   0  0  0  0  0  0  0  0  0  0  0  0
    6.3292   -4.2167    0.0000 C   0  0  0  0  0  0  0  0  0  0  0  0
    6.3292   -3.6167    0.0000 C   0  0  0  0  0  0  0  0  0  0  0  0
    7.3667   -4.2167    0.0000 C   0  0  0  0  0  0  0  0  0  0  0  0
    5.8167   -2.7167    0.0000 O   0  0  0  0  0  0  0  0  0  0  0  0
    7.3667   -3.6167    0.0000 C   0  0  0  0  0  0  0  0  0  0  0  0
    6.3292   -5.4167    0.0000 O   0  0  0  0  0  0  0  0  0  0  0  0
    7.3667   -5.4167    0.0000 C   0  0  0  0  0  0  0  0  0  0  0  0
    6.8542   -0.9250    0.0000 O   0  0  0  0  0  0  0  0  0  0  0  0
    5.8042   -4.5167    0.0000 Cl  0  0  0  0  0  0  0  0  0  0  0  0
    7.8792   -5.1167    0.0000 C   0  0  0  0  0  0  0  0  0  0  0  0
    7.3667   -6.0167    0.0000 C   0  0  0  0  0  0  0  0  0  0  0  0
    7.8875   -6.3167    0.0000 C   0  0  0  0  0  0  0  0  0  0  0  0
    8.4042   -5.4167    0.0000 C   0  0  0  0  0  0  0  0  0  0  0  0
    8.4042   -6.0167    0.0000 C   0  0  0  0  0  0  0  0  0  0  0  0
  2  1  1  0
  3  1  1  0
  4  2  1  0
  5 12  1  0
  6  8  1  0
  7  2  1  0
  8  3  1  0
  9  5  1  0
 10 11  1  0
 11  7  2  0
 12 14  2  0
 13  1  2  0
 14  7  1  0
 15  9  2  0
 16  9  1  0
 17  8  2  0
 18 10  1  0
 19 16  1  0
 20 16  2  0
 21 20  1  0
 22 19  2  0
 23 21  2  0
  4  6  2  0
 10  5  2  0
 22 23  1  0
M  END

> <chembl_id>
CHEMBL6240

> <chembl_pref_name>
None

$$$$

     RDKit          2D

 25 27  0  0  0  0  0  0  0  0999 V2000
    6.3417   -2.4250    0.0000 C   0  0  0  0  0  0  0  0  0  0  0  0
    6.8542   -2.7250    0.0000 N   0  0  0  0  0  0  0  0  0  0  0  0
    6.3417   -1.8250    0.0000 N   0  0  0  0  0  0  0  0  0  0  0  0
    7.3750   -2.4250    0.0000 N   0  0  0  0  0  0  0  0  0  0  0  0
    7.3667   -5.4167    0.0000 C   0  0  0  0  0  0  0  0  0  0  0  0
    7.3750   -1.8250    0.0000 C   0  0  0  0  0  0  0  0  0  0  0  0
    6.8542   -1.5250    0.0000 C   0  0  0  0  0  0  0  0  0  0  0  0
    6.8500   -5.1167    0.0000 C   0  0  0  0  0  0  0  0  0  0  0  0
    7.3667   -6.0167    0.0000 C   0  0  0  0  0  0  0  0  0  0  0  0
    7.8792   -5.1167    0.0000 C   0  0  0  0  0  0  0  0  0  0  0  0
    6.8542   -3.3250    0.0000 C   0  0  0  0  0  0  0  0  0  0  0  0
    5.8167   -2.7167    0.0000 O   0  0  0  0  0  0  0  0  0  0  0  0
    6.8500   -4.5167    0.0000 C   0  0  0  0  0  0  0  0  0  0  0  0
    8.4042   -5.4167    0.0000 C   0  0  0  0  0  0  0  0  0  0  0  0
    7.8875   -6.3167    0.0000 C   0  0  0  0  0  0  0  0  0  0  0  0
    6.3292   -5.4167    0.0000 O   0  0  0  0  0  0  0  0  0  0  0  0
    6.8542   -0.9250    0.0000 O   0  0  0  0  0  0  0  0  0  0  0  0
    8.4042   -6.0167    0.0000 C   0  0  0  0  0  0  0  0  0  0  0  0
    6.3292   -3.6167    0.0000 C   0  0  0  0  0  0  0  0  0  0  0  0
    7.3667   -3.6167    0.0000 C   0  0  0  0  0  0  0  0  0  0  0  0
    7.3667   -4.2167    0.0000 C   0  0  0  0  0  0  0  0  0  0  0  0
    6.3292   -4.2167    0.0000 C   0  0  0  0  0  0  0  0  0  0  0  0
    6.8417   -6.3167    0.0000 C   0  0  0  0  0  0  0  0  0  0  0  0
    7.8792   -4.5167    0.0000 C   0  0  0  0  0  0  0  0  0  0  0  0
    8.9250   -6.3167    0.0000 C   0  0  0  0  0  0  0  0  0  0  0  0
  2  1  1  0
  3  1  1  0
  4  2  1  0
  5  8  1  0
  6  7  1  0
  7  3  1  0
  8 13  1  0
  9  5  2  0
 10  5  1  0
 11  2  1  0
 12  1  2  0
 13 21  1  0
 14 10  2  0
 15  9  1  0
 16  8  2  0
 17  7  2  0
 18 14  1  0
 19 11  2  0
 20 11  1  0
 21 20  2  0
 22 19  1  0
 23  9  1  0
 24 10  1  0
 25 18  1  0
  4  6  2  0
 22 13  2  0
 15 18  2  0
M  END

> <chembl_id>
CHEMBL6243

> <chembl_pref_name>
None

$$$$

     RDKit          2D

 23 25  0  0  0  0  0  0  0  0999 V2000
    6.3417   -2.4250    0.0000 C   0  0  0  0  0  0  0  0  0  0  0  0
    6.8542   -2.7250    0.0000 N   0  0  0  0  0  0  0  0  0  0  0  0
    6.3417   -1.8250    0.0000 N   0  0  0  0  0  0  0  0  0  0  0  0
    7.3750   -2.4250    0.0000 N   0  0  0  0  0  0  0  0  0  0  0  0
    7.3750   -1.8250    0.0000 C   0  0  0  0  0  0  0  0  0  0  0  0
    6.8542   -1.5250    0.0000 C   0  0  0  0  0  0  0  0  0  0  0  0
    6.8500   -5.1167    0.0000 C   0  0  0  0  0  0  0  0  0  0  0  0
    6.8542   -3.3250    0.0000 C   0  0  0  0  0  0  0  0  0  0  0  0
    5.8167   -2.7167    0.0000 O   0  0  0  0  0  0  0  0  0  0  0  0
    6.8500   -4.5167    0.0000 C   0  0  0  0  0  0  0  0  0  0  0  0
    7.3667   -5.4167    0.0000 C   0  0  0  0  0  0  0  0  0  0  0  0
    6.8542   -0.9250    0.0000 O   0  0  0  0  0  0  0  0  0  0  0  0
    6.3292   -5.4167    0.0000 O   0  0  0  0  0  0  0  0  0  0  0  0
    7.3667   -3.6167    0.0000 C   0  0  0  0  0  0  0  0  0  0  0  0
    6.3292   -3.6167    0.0000 C   0  0  0  0  0  0  0  0  0  0  0  0
    6.3292   -4.2167    0.0000 C   0  0  0  0  0  0  0  0  0  0  0  0
    7.3667   -4.2167    0.0000 C   0  0  0  0  0  0  0  0  0  0  0  0
    7.3667   -6.0167    0.0000 C   0  0  0  0  0  0  0  0  0  0  0  0
    7.8792   -5.1167    0.0000 C   0  0  0  0  0  0  0  0  0  0  0  0
    8.4042   -6.0167    0.0000 C   0  0  0  0  0  0  0  0  0  0  0  0
    8.4042   -5.4167    0.0000 C   0  0  0  0  0  0  0  0  0  0  0  0
    7.8875   -6.3167    0.0000 C   0  0  0  0  0  0  0  0  0  0  0  0
    8.9250   -6.3167    0.0000 Cl  0  0  0  0  0  0  0  0  0  0  0  0
  2  1  1  0
  3  1  1  0
  4  2  1  0
  5  6  1  0
  6  3  1  0
  7 10  1  0
  8  2  1  0
  9  1  2  0
 10 16  2  0
 11  7  1  0
 12  6  2  0
 13  7  2  0
 14  8  1  0
 15  8  2  0
 16 15  1  0
 17 14  2  0
 18 11  2  0
 19 11  1  0
 20 21  1  0
 21 19  2  0
 22 18  1  0
 23 20  1  0
  4  5  2  0
 10 17  1  0
 22 20  2  0
M  END

> <chembl_id>
CHEMBL6272

> <chembl_pref_name>
None

$$$$

     RDKit          2D

 24 26  0  0  0  0  0  0  0  0999 V2000
    3.8042   -1.6000    0.0000 C   0  0  0  0  0  0  0  0  0  0  0  0
    4.3167   -1.9000    0.0000 N   0  0  0  0  0  0  0  0  0  0  0  0
    3.8042   -1.0000    0.0000 N   0  0  0  0  0  0  0  0  0  0  0  0
    4.8417   -1.6000    0.0000 N   0  0  0  0  0  0  0  0  0  0  0  0
    4.8417   -1.0000    0.0000 C   0  0  0  0  0  0  0  0  0  0  0  0
    4.3167   -0.7000    0.0000 C   0  0  0  0  0  0  0  0  0  0  0  0
    4.3167   -2.5000    0.0000 C   0  0  0  0  0  0  0  0  0  0  0  0
    4.3167   -3.6917    0.0000 C   0  0  0  0  0  0  0  0  0  0  0  0
    3.7917   -3.3917    0.0000 C   0  0  0  0  0  0  0  0  0  0  0  0
    4.3167   -4.2917    0.0000 C   0  0  0  0  0  0  0  0  0  0  0  0
    3.8000   -2.7917    0.0000 C   0  0  0  0  0  0  0  0  0  0  0  0
    4.8375   -3.3917    0.0000 C   0  0  0  0  0  0  0  0  0  0  0  0
    3.2875   -1.8917    0.0000 O   0  0  0  0  0  0  0  0  0  0  0  0
    4.8375   -4.5917    0.0000 C   0  0  0  0  0  0  0  0  0  0  0  0
    4.8375   -2.7917    0.0000 C   0  0  0  0  0  0  0  0  0  0  0  0
    4.3167   -0.0917    0.0000 O   0  0  0  0  0  0  0  0  0  0  0  0
    4.8292   -5.1917    0.0000 C   0  0  0  0  0  0  0  0  0  0  0  0
    5.3500   -4.2917    0.0000 C   0  0  0  0  0  0  0  0  0  0  0  0
    5.8667   -5.1917    0.0000 C   0  0  0  0  0  0  0  0  0  0  0  0
    3.7917   -4.5917    0.0000 O   0  0  0  0  0  0  0  0  0  0  0  0
    5.8667   -4.5917    0.0000 C   0  0  0  0  0  0  0  0  0  0  0  0
    5.3542   -5.4917    0.0000 C   0  0  0  0  0  0  0  0  0  0  0  0
    6.3917   -5.4917    0.0000 Cl  0  0  0  0  0  0  0  0  0  0  0  0
    3.2750   -3.6917    0.0000 C   0  0  0  0  0  0  0  0  0  0  0  0
  2  1  1  0
  3  1  1  0
  4  2  1  0
  5  6  1  0
  6  3  1  0
  7  2  1  0
  8 12  1  0
  9 11  1  0
 10  8  1  0
 11  7  2  0
 12 15  2  0
 13  1  2  0
 14 10  1  0
 15  7  1  0
 16  6  2  0
 17 14  2  0
 18 14  1  0
 19 21  1  0
 20 10  1  0
 21 18  2  0
 22 17  1  0
 23 19  1  0
 24  9  1  0
  4  5  2  0
  9  8  2  0
 22 19  2  0
M  END

> <chembl_id>
CHEMBL269496

> <chembl_pref_name>
None

$$$$

     RDKit          2D

 20 22  0  0  0  0  0  0  0  0999 V2000
    3.9875    0.7583    0.0000 N   0  0  0  0  0  0  0  0  0  0  0  0
    2.7167   -0.2792    0.0000 N   0  0  0  0  0  0  0  0  0  0  0  0
    0.6792   -1.0542    0.0000 N   0  0  0  0  0  0  0  0  0  0  0  0
    6.3042   -0.1250    0.0000 N   0  0  0  0  0  0  0  0  0  0  0  0
    4.6292    1.2833    0.0000 C   0  0  0  0  0  0  0  0  0  0  0  0
    5.4042    0.9875    0.0000 C   0  0  0  0  0  0  0  0  0  0  0  0
    2.0875   -0.8125    0.0000 C   0  0  0  0  0  0  0  0  0  0  0  0
    4.1250   -0.0417    0.0000 C   0  0  0  0  0  0  0  0  0  0  0  0
    3.4875   -0.5667    0.0000 C   0  0  0  0  0  0  0  0  0  0  0  0
    3.2167    1.0458    0.0000 C   0  0  0  0  0  0  0  0  0  0  0  0
    2.5792    0.5250    0.0000 C   0  0  0  0  0  0  0  0  0  0  0  0
    1.3042   -0.5250    0.0000 C   0  0  0  0  0  0  0  0  0  0  0  0
    5.5375    0.1708    0.0000 C   0  0  0  0  0  0  0  0  0  0  0  0
   -0.0958   -0.7750    0.0000 C   0  0  0  0  0  0  0  0  0  0  0  0
    6.9542    0.4083    0.0000 C   0  0  0  0  0  0  0  0  0  0  0  0
    6.0417    1.5125    0.0000 C   0  0  0  0  0  0  0  0  0  0  0  0
    1.1667    0.2875    0.0000 C   0  0  0  0  0  0  0  0  0  0  0  0
    6.8167    1.2208    0.0000 C   0  0  0  0  0  0  0  0  0  0  0  0
   -0.2458    0.0333    0.0000 C   0  0  0  0  0  0  0  0  0  0  0  0
    0.3917    0.5708    0.0000 C   0  0  0  0  0  0  0  0  0  0  0  0
  2 11  1  0
  3 12  1  0
  4 13  1  0
  5  1  1  0
  6  5  1  0
  7  2  1  0
  8  1  1  0
  9  8  1  0
 10  1  1  0
 11 10  1  0
 12  7  1  0
 13  6  2  0
 14  3  1  0
 15 18  1  0
 16  6  1  0
 17 12  1  0
 18 16  2  0
 19 20  1  0
 20 17  1  0
  2  9  1  0
  4 15  2  0
 14 19  1  0
M  END

> <chembl_id>
CHEMBL6283

> <chembl_pref_name>
None

$$$$

     RDKit          2D

 20 22  0  0  0  0  0  0  0  0999 V2000
    3.6417    0.5708    0.0000 N   0  0  0  0  0  0  0  0  0  0  0  0
    2.3792   -0.4667    0.0000 N   0  0  0  0  0  0  0  0  0  0  0  0
    0.3375   -1.2417    0.0000 N   0  0  0  0  0  0  0  0  0  0  0  0
    6.6167    0.2208    0.0000 N   0  0  0  0  0  0  0  0  0  0  0  0
    4.2917    1.0958    0.0000 C   0  0  0  0  0  0  0  0  0  0  0  0
    1.7417   -1.0000    0.0000 C   0  0  0  0  0  0  0  0  0  0  0  0
    2.2417    0.3375    0.0000 C   0  0  0  0  0  0  0  0  0  0  0  0
    3.7792   -0.2292    0.0000 C   0  0  0  0  0  0  0  0  0  0  0  0
    3.1417   -0.7542    0.0000 C   0  0  0  0  0  0  0  0  0  0  0  0
    2.8750    0.8583    0.0000 C   0  0  0  0  0  0  0  0  0  0  0  0
    0.9667   -0.7125    0.0000 C   0  0  0  0  0  0  0  0  0  0  0  0
    5.0625    0.8000    0.0000 C   0  0  0  0  0  0  0  0  0  0  0  0
   -0.4375   -0.9625    0.0000 C   0  0  0  0  0  0  0  0  0  0  0  0
    5.9667   -0.3125    0.0000 C   0  0  0  0  0  0  0  0  0  0  0  0
    6.4792    1.0333    0.0000 C   0  0  0  0  0  0  0  0  0  0  0  0
    5.1917   -0.0167    0.0000 C   0  0  0  0  0  0  0  0  0  0  0  0
    5.7042    1.3250    0.0000 C   0  0  0  0  0  0  0  0  0  0  0  0
    0.8250    0.1000    0.0000 C   0  0  0  0  0  0  0  0  0  0  0  0
   -0.5833   -0.1542    0.0000 C   0  0  0  0  0  0  0  0  0  0  0  0
    0.0542    0.3833    0.0000 C   0  0  0  0  0  0  0  0  0  0  0  0
  2  7  1  0
  3 11  1  0
  4 15  1  0
  5  1  1  0
  6  2  1  0
  7 10  1  0
  8  1  1  0
  9  8  1  0
 10  1  1  0
 11  6  1  0
 12  5  1  0
 13  3  1  0
 14 16  1  0
 15 17  2  0
 16 12  2  0
 17 12  1  0
 18 11  1  0
 19 20  1  0
 20 18  1  0
  2  9  1  0
 14  4  2  0
 13 19  1  0
M  END

> <chembl_id>
CHEMBL6284

> <chembl_pref_name>
None

$$$$

     RDKit          2D

 21 23  0  0  0  0  0  0  0  0999 V2000
    0.0875   -1.4292    0.0000 N   0  0  0  0  0  0  0  0  0  0  0  0
    2.1292   -0.6542    0.0000 N   0  0  0  0  0  0  0  0  0  0  0  0
    3.3917    0.3833    0.0000 N   0  0  0  0  0  0  0  0  0  0  0  0
    0.7167   -0.9000    0.0000 C   0  0  0  0  0  0  0  0  0  0  0  0
    1.4917   -1.1875    0.0000 C   0  0  0  0  0  0  0  0  0  0  0  0
    6.3667    0.0333    0.0000 N   0  0  0  0  0  0  0  0  0  0  0  0
    4.0417    0.9083    0.0000 C   0  0  0  0  0  0  0  0  0  0  0  0
    1.9917    0.1500    0.0000 C   0  0  0  0  0  0  0  0  0  0  0  0
    2.8917   -0.9417    0.0000 C   0  0  0  0  0  0  0  0  0  0  0  0
    3.5292   -0.4167    0.0000 C   0  0  0  0  0  0  0  0  0  0  0  0
    2.6250    0.6708    0.0000 C   0  0  0  0  0  0  0  0  0  0  0  0
    4.8125    0.6125    0.0000 C   0  0  0  0  0  0  0  0  0  0  0  0
    0.2292   -2.2417    0.0000 C   0  0  0  0  0  0  0  0  0  0  0  0
   -0.6875   -1.1500    0.0000 C   0  0  0  0  0  0  0  0  0  0  0  0
    6.2292    0.8458    0.0000 C   0  0  0  0  0  0  0  0  0  0  0  0
    5.7167   -0.5000    0.0000 C   0  0  0  0  0  0  0  0  0  0  0  0
    0.5750   -0.0875    0.0000 C   0  0  0  0  0  0  0  0  0  0  0  0
    4.9417   -0.2042    0.0000 C   0  0  0  0  0  0  0  0  0  0  0  0
    5.4542    1.1375    0.0000 C   0  0  0  0  0  0  0  0  0  0  0  0
   -0.8333   -0.3417    0.0000 C   0  0  0  0  0  0  0  0  0  0  0  0
   -0.1958    0.1958    0.0000 C   0  0  0  0  0  0  0  0  0  0  0  0
  2  5  1  0
  3 10  1  0
  4  1  1  0
  5  4  1  0
  6 15  1  0
  7  3  1  0
  8  2  1  0
  9  2  1  0
 10  9  1  0
 11  8  1  0
 12  7  1  0
 13  1  1  0
 14  1  1  0
 15 19  2  0
 16 18  1  0
 17  4  1  0
 18 12  2  0
 19 12  1  0
 20 14  1  0
 21 20  1  0
 17 21  1  0
 11  3  1  0
 16  6  2  0
M  END

> <chembl_id>
CHEMBL6277

> <chembl_pref_name>
None

$$$$

     RDKit          2D

 21 23  0  0  0  0  0  0  0  0999 V2000
    0.6792   -1.0542    0.0000 N   0  0  0  0  0  0  0  0  0  0  0  0
    2.7167   -0.2792    0.0000 N   0  0  0  0  0  0  0  0  0  0  0  0
    3.9875    0.7583    0.0000 N   0  0  0  0  0  0  0  0  0  0  0  0
    1.3042   -0.5250    0.0000 C   0  0  0  0  0  0  0  0  0  0  0  0
    2.0875   -0.8125    0.0000 C   0  0  0  0  0  0  0  0  0  0  0  0
    6.3042   -0.1250    0.0000 N   0  0  0  0  0  0  0  0  0  0  0  0
    4.6292    1.2833    0.0000 C   0  0  0  0  0  0  0  0  0  0  0  0
    5.4042    0.9875    0.0000 C   0  0  0  0  0  0  0  0  0  0  0  0
    3.4875   -0.5667    0.0000 C   0  0  0  0  0  0  0  0  0  0  0  0
    2.5792    0.5250    0.0000 C   0  0  0  0  0  0  0  0  0  0  0  0
    3.2167    1.0458    0.0000 C   0  0  0  0  0  0  0  0  0  0  0  0
    4.1250   -0.0417    0.0000 C   0  0  0  0  0  0  0  0  0  0  0  0
    0.8167   -1.8667    0.0000 C   0  0  0  0  0  0  0  0  0  0  0  0
    5.5375    0.1708    0.0000 C   0  0  0  0  0  0  0  0  0  0  0  0
   -0.0958   -0.7750    0.0000 C   0  0  0  0  0  0  0  0  0  0  0  0
    6.9542    0.4083    0.0000 C   0  0  0  0  0  0  0  0  0  0  0  0
    1.1667    0.2875    0.0000 C   0  0  0  0  0  0  0  0  0  0  0  0
    6.0417    1.5125    0.0000 C   0  0  0  0  0  0  0  0  0  0  0  0
    6.8167    1.2208    0.0000 C   0  0  0  0  0  0  0  0  0  0  0  0
   -0.2458    0.0333    0.0000 C   0  0  0  0  0  0  0  0  0  0  0  0
    0.3917    0.5708    0.0000 C   0  0  0  0  0  0  0  0  0  0  0  0
  2  5  1  0
  3 11  1  0
  4  1  1  0
  5  4  1  0
  6 14  1  0
  7  3  1  0
  8  7  1  0
  9  2  1  0
 10  2  1  0
 11 10  1  0
 12  9  1  0
 13  1  1  0
 14  8  2  0
 15  1  1  0
 16 19  1  0
 17  4  1  0
 18  8  1  0
 19 18  2  0
 20 15  1  0
 21 20  1  0
 17 21  1  0
 12  3  1  0
  6 16  2  0
M  END

> <chembl_id>
CHEMBL268830

> <chembl_pref_name>
None

$$$$

     RDKit          2D

 32 35  0  0  0  0  0  0  0  0999 V2000
   -2.6111    0.7486    0.0000 C   0  0  0  0  0  0  0  0  0  0  0  0
   -2.6111   -0.7486    0.0000 N   0  0  0  0  0  0  0  0  0  0  0  0
    0.0000   -0.7486    0.0000 C   0  0  0  0  0  0  0  0  0  0  0  0
   -1.2964   -1.4973    0.0000 C   0  0  0  0  0  0  0  0  0  0  0  0
   -1.2964    1.4973    0.0000 N   0  0  0  0  0  0  0  0  0  0  0  0
    0.0000    0.7486    0.0000 C   0  0  0  0  0  0  0  0  0  0  0  0
   -3.9086    1.5029    0.0000 N   0  0  0  0  0  0  0  0  0  0  0  0
   -6.5078    3.0010    0.0000 N   0  0  0  0  0  0  0  0  0  0  0  0
   -7.8065    3.7531    0.0000 C   0  0  0  0  0  0  0  0  0  0  0  0
    1.2964   -1.4973    0.0000 C   0  0  0  0  0  0  0  0  0  0  0  0
    1.2964    1.4973    0.0000 C   0  0  0  0  0  0  0  0  0  0  0  0
   -7.8054    5.2540    0.0000 C   0  0  0  0  0  0  0  0  0  0  0  0
    2.5929   -0.7486    0.0000 C   0  0  0  0  0  0  0  0  0  0  0  0
    2.5929    0.7486    0.0000 C   0  0  0  0  0  0  0  0  0  0  0  0
   -9.1042    6.0061    0.0000 C   0  0  0  0  0  0  0  0  0  0  0  0
   -3.9097    3.0028    0.0000 C   0  0  0  0  0  0  0  0  0  0  0  0
   -5.2071    0.7519    0.0000 C   0  0  0  0  0  0  0  0  0  0  0  0
   -6.5067    1.5010    0.0000 C   0  0  0  0  0  0  0  0  0  0  0  0
   -5.2093    3.7519    0.0000 C   0  0  0  0  0  0  0  0  0  0  0  0
   -8.8464    3.1542    0.0000 O   0  0  0  0  0  0  0  0  0  0  0  0
   -1.2928   -2.6973    0.0000 N   0  0  0  0  0  0  0  0  0  0  0  0
   -9.1031    7.5069    0.0000 C   0  0  0  0  0  0  0  0  0  0  0  0
   -9.0948   10.5070    0.0000 C   0  0  0  0  0  0  0  0  0  0  0  0
    3.8911   -1.5017    0.0000 O   0  0  0  0  0  0  0  0  0  0  0  0
    3.8911    1.5017    0.0000 O   0  0  0  0  0  0  0  0  0  0  0  0
   -9.0915   11.7070    0.0000 Br  0  0  0  0  0  0  0  0  0  0  0  0
  -10.4000    8.2606    0.0000 C   0  0  0  0  0  0  0  0  0  0  0  0
   -7.8020    8.2535    0.0000 C   0  0  0  0  0  0  0  0  0  0  0  0
   -7.7978    9.7535    0.0000 C   0  0  0  0  0  0  0  0  0  0  0  0
  -10.3959    9.7606    0.0000 C   0  0  0  0  0  0  0  0  0  0  0  0
    3.8894   -2.7017    0.0000 C   0  0  0  0  0  0  0  0  0  0  0  0
    3.8894    2.7017    0.0000 C   0  0  0  0  0  0  0  0  0  0  0  0
  1  2  2  0
  2  4  1  0
  3  4  2  0
  1  5  1  0
  3  6  1  0
  5  6  2  0
  1  7  1  0
  8  9  1  0
  3 10  1  0
  6 11  1  0
  9 12  1  0
 10 13  2  0
 11 14  2  0
 13 14  1  0
 12 15  2  0
  7 16  1  0
  7 17  1  0
  8 18  1  0
 17 18  1  0
  8 19  1  0
 16 19  1  0
  9 20  2  0
  4 21  1  0
 15 22  1  0
 13 24  1  0
 14 25  1  0
 23 26  1  0
 22 27  2  0
 22 28  1  0
 23 29  1  0
 28 29  2  0
 23 30  2  0
 27 30  1  0
 24 31  1  0
 25 32  1  0
M  END

> <chembl_id>
CHEMBL6290

> <chembl_pref_name>
None

$$$$

     RDKit          2D

 19 20  0  0  0  0  0  0  0  0999 V2000
    4.2167   -1.6917    0.0000 C   0  0  0  0  0  0  0  0  0  0  0  0
    4.7292   -1.9917    0.0000 N   0  0  0  0  0  0  0  0  0  0  0  0
    4.2167   -1.0917    0.0000 N   0  0  0  0  0  0  0  0  0  0  0  0
    5.2500   -1.6917    0.0000 N   0  0  0  0  0  0  0  0  0  0  0  0
    5.2500   -1.0917    0.0000 C   0  0  0  0  0  0  0  0  0  0  0  0
    4.7292   -0.7917    0.0000 C   0  0  0  0  0  0  0  0  0  0  0  0
    4.7292   -2.5917    0.0000 C   0  0  0  0  0  0  0  0  0  0  0  0
    3.6917   -1.9875    0.0000 O   0  0  0  0  0  0  0  0  0  0  0  0
    4.7250   -3.7875    0.0000 C   0  0  0  0  0  0  0  0  0  0  0  0
    4.7250   -4.3792    0.0000 C   0  0  0  0  0  0  0  0  0  0  0  0
    4.7292   -0.1917    0.0000 O   0  0  0  0  0  0  0  0  0  0  0  0
    4.2042   -2.8875    0.0000 C   0  0  0  0  0  0  0  0  0  0  0  0
    5.2417   -2.8875    0.0000 C   0  0  0  0  0  0  0  0  0  0  0  0
    4.2042   -4.6875    0.0000 O   0  0  0  0  0  0  0  0  0  0  0  0
    5.2417   -3.4792    0.0000 C   0  0  0  0  0  0  0  0  0  0  0  0
    4.2042   -3.4792    0.0000 C   0  0  0  0  0  0  0  0  0  0  0  0
    5.2417   -4.6792    0.0000 C   0  0  0  0  0  0  0  0  0  0  0  0
    5.2417   -5.2792    0.0000 C   0  0  0  0  0  0  0  0  0  0  0  0
    5.7667   -5.5792    0.0000 C   0  0  0  0  0  0  0  0  0  0  0  0
  2  1  1  0
  3  1  1  0
  4  2  1  0
  5  6  1  0
  6  3  1  0
  7  2  1  0
  8  1  2  0
  9 15  1  0
 10  9  1  0
 11  6  2  0
 12  7  2  0
 13  7  1  0
 14 10  2  0
 15 13  2  0
 16 12  1  0
 17 10  1  0
 18 17  1  0
 19 18  1  0
  4  5  2  0
 16  9  2  0
M  END

> <chembl_id>
CHEMBL6308

> <chembl_pref_name>
None

$$$$

     RDKit          2D

 17 18  0  0  0  0  0  0  0  0999 V2000
    4.2167   -1.6917    0.0000 C   0  0  0  0  0  0  0  0  0  0  0  0
    4.7292   -1.9917    0.0000 N   0  0  0  0  0  0  0  0  0  0  0  0
    4.2167   -1.0917    0.0000 N   0  0  0  0  0  0  0  0  0  0  0  0
    5.2500   -1.6917    0.0000 N   0  0  0  0  0  0  0  0  0  0  0  0
    5.2500   -1.0917    0.0000 C   0  0  0  0  0  0  0  0  0  0  0  0
    4.7292   -0.7917    0.0000 C   0  0  0  0  0  0  0  0  0  0  0  0
    4.7292   -2.5917    0.0000 C   0  0  0  0  0  0  0  0  0  0  0  0
    3.6917   -1.9875    0.0000 O   0  0  0  0  0  0  0  0  0  0  0  0
    4.7250   -3.7875    0.0000 C   0  0  0  0  0  0  0  0  0  0  0  0
    4.7250   -4.3792    0.0000 C   0  0  0  0  0  0  0  0  0  0  0  0
    4.7292   -0.1917    0.0000 O   0  0  0  0  0  0  0  0  0  0  0  0
    4.2042   -2.8875    0.0000 C   0  0  0  0  0  0  0  0  0  0  0  0
    5.2417   -2.8875    0.0000 C   0  0  0  0  0  0  0  0  0  0  0  0
    4.2042   -4.6875    0.0000 O   0  0  0  0  0  0  0  0  0  0  0  0
    5.2417   -3.4792    0.0000 C   0  0  0  0  0  0  0  0  0  0  0  0
    4.2042   -3.4792    0.0000 C   0  0  0  0  0  0  0  0  0  0  0  0
    5.2417   -4.6792    0.0000 C   0  0  0  0  0  0  0  0  0  0  0  0
  2  1  1  0
  3  1  1  0
  4  2  1  0
  5  6  1  0
  6  3  1  0
  7  2  1  0
  8  1  2  0
  9 15  1  0
 10  9  1  0
 11  6  2  0
 12  7  2  0
 13  7  1  0
 14 10  2  0
 15 13  2  0
 16 12  1  0
 17 10  1  0
  4  5  2  0
 16  9  2  0
M  END

> <chembl_id>
CHEMBL268150

> <chembl_pref_name>
None

$$$$

     RDKit          2D

 30 34  0  0  0  0  0  0  0  0999 V2000
    4.1792   -0.1542    0.0000 C   0  0  0  0  0  0  0  0  0  0  0  0
    4.6917   -0.4625    0.0000 N   0  0  0  0  0  0  0  0  0  0  0  0
    4.1792    0.4375    0.0000 N   0  0  0  0  0  0  0  0  0  0  0  0
    5.2167   -0.1542    0.0000 N   0  0  0  0  0  0  0  0  0  0  0  0
    5.2125   -3.7500    0.0000 C   0  0  0  0  0  0  0  0  0  0  0  0
    5.7292   -4.0417    0.0000 C   0  0  0  0  0  0  0  0  0  0  0  0
    5.7417   -4.6417    0.0000 C   0  0  0  0  0  0  0  0  0  0  0  0
    4.6917   -4.6542    0.0000 O   0  0  0  0  0  0  0  0  0  0  0  0
    4.6917   -4.0542    0.0000 C   0  0  0  0  0  0  0  0  0  0  0  0
    5.2167   -4.9542    0.0000 C   0  0  0  0  0  0  0  0  0  0  0  0
    5.2167    0.4375    0.0000 C   0  0  0  0  0  0  0  0  0  0  0  0
    4.6917    0.7375    0.0000 C   0  0  0  0  0  0  0  0  0  0  0  0
    5.2042   -3.1542    0.0000 C   0  0  0  0  0  0  0  0  0  0  0  0
    4.6917   -2.8542    0.0000 C   0  0  0  0  0  0  0  0  0  0  0  0
    4.6917   -1.0625    0.0000 C   0  0  0  0  0  0  0  0  0  0  0  0
    3.6625   -0.4542    0.0000 O   0  0  0  0  0  0  0  0  0  0  0  0
    6.2667   -4.9417    0.0000 C   0  0  0  0  0  0  0  0  0  0  0  0
    6.2542   -3.7417    0.0000 O   0  0  0  0  0  0  0  0  0  0  0  0
    4.6917   -2.2542    0.0000 C   0  0  0  0  0  0  0  0  0  0  0  0
    4.1667   -3.7542    0.0000 C   0  0  0  0  0  0  0  0  0  0  0  0
    4.6917    1.3375    0.0000 O   0  0  0  0  0  0  0  0  0  0  0  0
    5.2250   -5.5542    0.0000 C   0  0  0  0  0  0  0  0  0  0  0  0
    4.1667   -3.1542    0.0000 C   0  0  0  0  0  0  0  0  0  0  0  0
    4.1750   -1.3542    0.0000 C   0  0  0  0  0  0  0  0  0  0  0  0
    5.2125   -1.3542    0.0000 C   0  0  0  0  0  0  0  0  0  0  0  0
    5.2125   -1.9542    0.0000 C   0  0  0  0  0  0  0  0  0  0  0  0
    4.1667   -1.9542    0.0000 C   0  0  0  0  0  0  0  0  0  0  0  0
    6.2667   -5.5417    0.0000 C   0  0  0  0  0  0  0  0  0  0  0  0
    5.7500   -5.8542    0.0000 C   0  0  0  0  0  0  0  0  0  0  0  0
    6.7917   -5.8417    0.0000 Cl  0  0  0  0  0  0  0  0  0  0  0  0
  2  1  1  0
  3  1  1  0
  4  2  1  0
  5 13  2  0
  6  5  1  0
  7  6  1  0
  8  9  1  0
  9 20  2  0
 10  8  1  0
 11 12  1  0
 12  3  1  0
 13 14  1  0
 14 19  1  0
 15  2  1  0
 16  1  2  0
 17  7  1  0
 18  6  2  0
 19 26  1  0
 20 23  1  0
 21 12  2  0
 22 10  1  0
 23 14  2  0
 24 15  2  0
 25 15  1  0
 26 25  2  0
 27 24  1  0
 28 17  2  0
 29 22  2  0
 30 28  1  0
  4 11  2  0
 27 19  2  0
  5  9  1  0
  7 10  2  0
 29 28  1  0
M  END

> <chembl_id>
CHEMBL6293

> <chembl_pref_name>
None

$$$$

     RDKit          2D

 33 36  0  0  0  0  0  0  0  0999 V2000
    1.9667   -1.4250    0.0000 C   0  0  0  0  0  0  0  0  0  0  0  0
    1.9750   -2.2542    0.0000 N   0  0  0  0  0  0  0  0  0  0  0  0
    0.5417   -2.2542    0.0000 C   0  0  0  0  0  0  0  0  0  0  0  0
    1.2625   -2.6667    0.0000 C   0  0  0  0  0  0  0  0  0  0  0  0
    1.2542   -1.0167    0.0000 N   0  0  0  0  0  0  0  0  0  0  0  0
    0.5417   -1.4292    0.0000 C   0  0  0  0  0  0  0  0  0  0  0  0
    4.8250    0.2333    0.0000 C   0  0  0  0  0  0  0  0  0  0  0  0
    2.6792   -1.0125    0.0000 N   0  0  0  0  0  0  0  0  0  0  0  0
    4.1042   -0.1792    0.0000 N   0  0  0  0  0  0  0  0  0  0  0  0
   -0.1708   -2.6750    0.0000 C   0  0  0  0  0  0  0  0  0  0  0  0
    5.5375   -0.1792    0.0000 C   0  0  0  0  0  0  0  0  0  0  0  0
   -0.1708   -1.0167    0.0000 C   0  0  0  0  0  0  0  0  0  0  0  0
    8.3917   -1.8167    0.0000 C   0  0  0  0  0  0  0  0  0  0  0  0
   -0.8833   -2.2625    0.0000 C   0  0  0  0  0  0  0  0  0  0  0  0
   -0.8833   -1.4375    0.0000 C   0  0  0  0  0  0  0  0  0  0  0  0
    6.2500    0.2375    0.0000 C   0  0  0  0  0  0  0  0  0  0  0  0
    6.9625   -0.1667    0.0000 C   0  0  0  0  0  0  0  0  0  0  0  0
    7.6792   -1.4042    0.0000 N   0  0  0  0  0  0  0  0  0  0  0  0
    6.9667   -1.0000    0.0000 C   0  0  0  0  0  0  0  0  0  0  0  0
    9.1125   -2.2292    0.0000 S   0  0  0  0  0  0  0  0  0  0  0  0
    3.4000   -1.4167    0.0000 C   0  0  0  0  0  0  0  0  0  0  0  0
    2.6792   -0.1875    0.0000 C   0  0  0  0  0  0  0  0  0  0  0  0
    3.3917    0.2333    0.0000 C   0  0  0  0  0  0  0  0  0  0  0  0
    4.1125   -1.0042    0.0000 C   0  0  0  0  0  0  0  0  0  0  0  0
    4.8167    1.0583    0.0000 O   0  0  0  0  0  0  0  0  0  0  0  0
    5.5375   -1.0042    0.0000 C   0  0  0  0  0  0  0  0  0  0  0  0
    1.2542   -3.4917    0.0000 N   0  0  0  0  0  0  0  0  0  0  0  0
    6.2542   -1.4125    0.0000 C   0  0  0  0  0  0  0  0  0  0  0  0
    7.6750    0.2458    0.0000 I   0  0  0  0  0  0  0  0  0  0  0  0
   -1.6000   -2.6750    0.0000 O   0  0  0  0  0  0  0  0  0  0  0  0
   -1.5958   -1.0250    0.0000 O   0  0  0  0  0  0  0  0  0  0  0  0
   -2.3125   -1.4375    0.0000 C   0  0  0  0  0  0  0  0  0  0  0  0
   -2.3125   -2.2625    0.0000 C   0  0  0  0  0  0  0  0  0  0  0  0
  2  1  1  0
  3  6  1  0
  4  2  2  0
  5  1  2  0
  6  5  1  0
  7  9  1  0
  8  1  1  0
  9 23  1  0
 10  3  2  0
 11  7  1  0
 12  6  2  0
 13 18  2  0
 14 15  2  0
 15 12  1  0
 16 11  1  0
 17 16  2  0
 18 19  1  0
 19 28  2  0
 20 13  2  0
 21  8  1  0
 22  8  1  0
 23 22  1  0
 24 21  1  0
 25  7  2  0
 26 11  2  0
 27  4  1  0
 28 26  1  0
 29 17  1  0
 30 14  1  0
 31 15  1  0
 32 31  1  0
 33 30  1  0
  3  4  1  0
 24  9  1  0
 10 14  1  0
 17 19  1  0
M  END

> <chembl_id>
CHEMBL447227

> <chembl_pref_name>
None

$$$$

     RDKit          2D

 36 40  0  0  0  0  0  0  0  0999 V2000
    1.9667   -1.4250    0.0000 C   0  0  0  0  0  0  0  0  0  0  0  0
    1.9750   -2.2542    0.0000 N   0  0  0  0  0  0  0  0  0  0  0  0
    9.8167    1.4833    0.0000 N   0  0  0  0  0  0  0  0  0  0  0  0
    0.5417   -2.2542    0.0000 C   0  0  0  0  0  0  0  0  0  0  0  0
    9.1042    1.0708    0.0000 C   0  0  0  0  0  0  0  0  0  0  0  0
    1.2625   -2.6667    0.0000 C   0  0  0  0  0  0  0  0  0  0  0  0
    1.2542   -1.0167    0.0000 N   0  0  0  0  0  0  0  0  0  0  0  0
    4.8250    0.2333    0.0000 C   0  0  0  0  0  0  0  0  0  0  0  0
    0.5417   -1.4292    0.0000 C   0  0  0  0  0  0  0  0  0  0  0  0
    2.6792   -1.0125    0.0000 N   0  0  0  0  0  0  0  0  0  0  0  0
    4.1042   -0.1792    0.0000 N   0  0  0  0  0  0  0  0  0  0  0  0
   -0.1708   -2.6750    0.0000 C   0  0  0  0  0  0  0  0  0  0  0  0
   -0.1708   -1.0167    0.0000 C   0  0  0  0  0  0  0  0  0  0  0  0
   10.6417    1.4833    0.0000 C   0  0  0  0  0  0  0  0  0  0  0  0
   10.2292    2.1958    0.0000 C   0  0  0  0  0  0  0  0  0  0  0  0
    8.3917    1.4750    0.0000 N   0  0  0  0  0  0  0  0  0  0  0  0
    5.5375   -0.1792    0.0000 N   0  0  0  0  0  0  0  0  0  0  0  0
   -0.8833   -2.2625    0.0000 C   0  0  0  0  0  0  0  0  0  0  0  0
   -0.8833   -1.4375    0.0000 C   0  0  0  0  0  0  0  0  0  0  0  0
    9.1125    0.2458    0.0000 S   0  0  0  0  0  0  0  0  0  0  0  0
    4.8167    1.0583    0.0000 S   0  0  0  0  0  0  0  0  0  0  0  0
    2.6792   -0.1875    0.0000 C   0  0  0  0  0  0  0  0  0  0  0  0
    3.4000   -1.4167    0.0000 C   0  0  0  0  0  0  0  0  0  0  0  0
    4.1125   -1.0042    0.0000 C   0  0  0  0  0  0  0  0  0  0  0  0
    3.3917    0.2333    0.0000 C   0  0  0  0  0  0  0  0  0  0  0  0
    1.2542   -3.4917    0.0000 N   0  0  0  0  0  0  0  0  0  0  0  0
    6.2542    0.2333    0.0000 C   0  0  0  0  0  0  0  0  0  0  0  0
    7.6792    1.0583    0.0000 C   0  0  0  0  0  0  0  0  0  0  0  0
   -1.6000   -2.6750    0.0000 O   0  0  0  0  0  0  0  0  0  0  0  0
   -1.5958   -1.0250    0.0000 O   0  0  0  0  0  0  0  0  0  0  0  0
    6.9542    1.4708    0.0000 C   0  0  0  0  0  0  0  0  0  0  0  0
    6.2500    1.0583    0.0000 C   0  0  0  0  0  0  0  0  0  0  0  0
    7.6792    0.2333    0.0000 C   0  0  0  0  0  0  0  0  0  0  0  0
    6.9667   -0.1792    0.0000 C   0  0  0  0  0  0  0  0  0  0  0  0
   -2.3125   -2.2625    0.0000 C   0  0  0  0  0  0  0  0  0  0  0  0
   -2.3125   -1.4375    0.0000 C   0  0  0  0  0  0  0  0  0  0  0  0
  2  1  2  0
  3  5  1  0
  4  9  1  0
  5 16  1  0
  6  2  1  0
  7  1  1  0
  8 11  1  0
  9  7  2  0
 10  1  1  0
 11 24  1  0
 12  4  1  0
 13  9  1  0
 14  3  1  0
 15  3  1  0
 16 28  1  0
 17  8  2  0
 18 19  1  0
 19 13  2  0
 20  5  2  0
 21  8  1  0
 22 10  1  0
 23 10  1  0
 24 23  1  0
 25 22  1  0
 26  6  1  0
 27 17  1  0
 28 33  1  0
 29 18  1  0
 30 19  1  0
 31 32  1  0
 32 27  2  0
 33 34  2  0
 34 27  1  0
 35 29  1  0
 36 30  1  0
  6  4  2  0
 25 11  1  0
 18 12  2  0
 31 28  2  0
 14 15  1  0
M  END

> <chembl_id>
CHEMBL6302

> <chembl_pref_name>
None

$$$$

     RDKit          2D

 20 22  0  0  1  0  0  0  0  0999 V2000
    2.3125   -3.8667    0.0000 N   0  0  0  0  0  0  0  0  0  0  0  0
    4.3667   -3.0792    0.0000 N   0  0  0  0  0  0  0  0  0  0  0  0
    5.6042   -1.9792    0.0000 N   0  0  0  0  0  0  0  0  0  0  0  0
    2.9792   -3.3792    0.0000 C   0  0  0  0  0  0  0  0  0  0  0  0
    3.7667   -3.6292    0.0000 C   0  0  0  0  0  0  0  0  0  0  0  0
    8.5667   -2.2042    0.0000 N   0  0  0  0  0  0  0  0  0  0  0  0
    6.2167   -1.4292    0.0000 C   0  0  0  0  0  0  0  0  0  0  0  0
    5.1625   -3.3417    0.0000 C   0  0  0  0  0  0  0  0  0  0  0  0
    4.2042   -2.2792    0.0000 C   0  0  0  0  0  0  0  0  0  0  0  0
    4.8167   -1.7292    0.0000 C   0  0  0  0  0  0  0  0  0  0  0  0
    5.7750   -2.7917    0.0000 C   0  0  0  0  0  0  0  0  0  0  0  0
    1.6417   -3.3792    0.0000 C   0  0  0  0  0  0  0  0  0  0  0  0
    7.0042   -1.6917    0.0000 C   0  0  0  0  0  0  0  0  0  0  0  0
    2.3042   -4.6917    0.0000 C   0  0  0  0  0  0  0  0  0  0  0  0
    1.9000   -2.5917    0.0000 C   0  0  0  0  0  0  0  0  0  0  0  0
    2.7250   -2.5917    0.0000 C   0  0  0  0  0  0  0  0  0  0  0  0
    7.9500   -2.7542    0.0000 C   0  0  0  0  0  0  0  0  0  0  0  0
    8.3917   -1.3917    0.0000 C   0  0  0  0  0  0  0  0  0  0  0  0
    7.1667   -2.4917    0.0000 C   0  0  0  0  0  0  0  0  0  0  0  0
    7.6125   -1.1417    0.0000 C   0  0  0  0  0  0  0  0  0  0  0  0
  2  5  1  0
  3 10  1  0
  4  1  1  0
  4  5  1  1
  6 18  1  0
  7  3  1  0
  8  2  1  0
  9  2  1  0
 10  9  1  0
 11  8  1  0
 12  1  1  0
 13  7  1  0
 14  1  1  0
 15 12  1  0
 16  4  1  0
 17 19  1  0
 18 20  2  0
 19 13  2  0
 20 13  1  0
 15 16  1  0
 11  3  1  0
 17  6  2  0
M  END

> <chembl_id>
CHEMBL268831

> <chembl_pref_name>
None

$$$$

     RDKit          2D

 20 22  0  0  1  0  0  0  0  0999 V2000
    2.3167   -3.8667    0.0000 N   0  0  0  0  0  0  0  0  0  0  0  0
    4.3792   -3.0792    0.0000 N   0  0  0  0  0  0  0  0  0  0  0  0
    5.6125   -1.9792    0.0000 N   0  0  0  0  0  0  0  0  0  0  0  0
    2.9875   -3.3792    0.0000 C   0  0  0  0  0  0  0  0  0  0  0  0
    3.7750   -3.6292    0.0000 C   0  0  0  0  0  0  0  0  0  0  0  0
    7.9542   -2.7542    0.0000 N   0  0  0  0  0  0  0  0  0  0  0  0
    6.2250   -1.4292    0.0000 C   0  0  0  0  0  0  0  0  0  0  0  0
    7.0125   -1.6917    0.0000 C   0  0  0  0  0  0  0  0  0  0  0  0
    4.2125   -2.2792    0.0000 C   0  0  0  0  0  0  0  0  0  0  0  0
    5.1667   -3.3417    0.0000 C   0  0  0  0  0  0  0  0  0  0  0  0
    5.7792   -2.7917    0.0000 C   0  0  0  0  0  0  0  0  0  0  0  0
    4.8250   -1.7292    0.0000 C   0  0  0  0  0  0  0  0  0  0  0  0
    1.6500   -3.3792    0.0000 C   0  0  0  0  0  0  0  0  0  0  0  0
    2.3125   -4.6917    0.0000 C   0  0  0  0  0  0  0  0  0  0  0  0
    7.1750   -2.4917    0.0000 C   0  0  0  0  0  0  0  0  0  0  0  0
    1.9042   -2.5917    0.0000 C   0  0  0  0  0  0  0  0  0  0  0  0
    2.7292   -2.5917    0.0000 C   0  0  0  0  0  0  0  0  0  0  0  0
    8.5750   -2.2042    0.0000 C   0  0  0  0  0  0  0  0  0  0  0  0
    7.6167   -1.1417    0.0000 C   0  0  0  0  0  0  0  0  0  0  0  0
    8.4000   -1.3917    0.0000 C   0  0  0  0  0  0  0  0  0  0  0  0
  2  5  1  0
  3 11  1  0
  4  1  1  0
  4  5  1  1
  6 15  1  0
  7  3  1  0
  8  7  1  0
  9  2  1  0
 10  2  1  0
 11 10  1  0
 12  9  1  0
 13  1  1  0
 14  1  1  0
 15  8  2  0
 16 13  1  0
 17  4  1  0
 18 20  1  0
 19  8  1  0
 20 19  2  0
 16 17  1  0
  3 12  1  0
  6 18  2  0
M  END

> <chembl_id>
CHEMBL267915

> <chembl_pref_name>
None

$$$$

     RDKit          2D

 28 31  0  0  0  0  0  0  0  0999 V2000
    0.9375   -1.9792    0.0000 C   0  0  0  0  0  0  0  0  0  0  0  0
    0.9292   -2.6917    0.0000 N   0  0  0  0  0  0  0  0  0  0  0  0
   -0.3208   -2.6750    0.0000 C   0  0  0  0  0  0  0  0  0  0  0  0
    0.2875   -3.0417    0.0000 C   0  0  0  0  0  0  0  0  0  0  0  0
    0.3042   -1.6167    0.0000 N   0  0  0  0  0  0  0  0  0  0  0  0
   -0.3208   -1.9625    0.0000 C   0  0  0  0  0  0  0  0  0  0  0  0
    3.3917   -0.5917    0.0000 C   0  0  0  0  0  0  0  0  0  0  0  0
    1.5542   -1.6417    0.0000 N   0  0  0  0  0  0  0  0  0  0  0  0
    2.7792   -0.9542    0.0000 N   0  0  0  0  0  0  0  0  0  0  0  0
   -0.9500   -3.0167    0.0000 C   0  0  0  0  0  0  0  0  0  0  0  0
    4.0125   -0.9292    0.0000 C   0  0  0  0  0  0  0  0  0  0  0  0
   -0.9250   -1.5917    0.0000 C   0  0  0  0  0  0  0  0  0  0  0  0
   -1.5833   -2.6542    0.0000 C   0  0  0  0  0  0  0  0  0  0  0  0
   -1.5708   -1.9417    0.0000 C   0  0  0  0  0  0  0  0  0  0  0  0
    4.2417   -1.5917    0.0000 O   0  0  0  0  0  0  0  0  0  0  0  0
    1.5417   -0.9500    0.0000 C   0  0  0  0  0  0  0  0  0  0  0  0
    2.1667   -2.0000    0.0000 C   0  0  0  0  0  0  0  0  0  0  0  0
    2.1667   -0.5792    0.0000 C   0  0  0  0  0  0  0  0  0  0  0  0
    2.7792   -1.6375    0.0000 C   0  0  0  0  0  0  0  0  0  0  0  0
    3.4042    0.0875    0.0000 O   0  0  0  0  0  0  0  0  0  0  0  0
    4.5792   -0.5125    0.0000 C   0  0  0  0  0  0  0  0  0  0  0  0
    4.9417   -1.5917    0.0000 C   0  0  0  0  0  0  0  0  0  0  0  0
    5.1542   -0.9292    0.0000 C   0  0  0  0  0  0  0  0  0  0  0  0
    0.2667   -3.7542    0.0000 N   0  0  0  0  0  0  0  0  0  0  0  0
   -2.2000   -2.9917    0.0000 O   0  0  0  0  0  0  0  0  0  0  0  0
   -2.1833   -1.5792    0.0000 O   0  0  0  0  0  0  0  0  0  0  0  0
   -2.7958   -1.9125    0.0000 C   0  0  0  0  0  0  0  0  0  0  0  0
   -2.7958   -2.6542    0.0000 C   0  0  0  0  0  0  0  0  0  0  0  0
  2  1  2  0
  3  6  1  0
  4  2  1  0
  5  1  1  0
  6  5  2  0
  7  9  1  0
  8  1  1  0
  9 19  1  0
 10  3  1  0
 11  7  1  0
 12  6  1  0
 13 14  1  0
 14 12  2  0
 15 11  1  0
 16  8  1  0
 17  8  1  0
 18 16  1  0
 19 17  1  0
 20  7  2  0
 21 11  2  0
 22 15  1  0
 23 21  1  0
 24  4  1  0
 25 13  1  0
 26 14  1  0
 27 26  1  0
 28 25  1  0
  3  4  2  0
  9 18  1  0
 10 13  2  0
 22 23  2  0
M  END

> <chembl_id>
CHEMBL2

> <chembl_pref_name>
PRAZOSIN

$$$$

     RDKit          2D

 31 33  0  0  0  0  0  0  0  0999 V2000
    5.0042   -1.9542    0.0000 C   0  0  0  0  0  0  0  0  0  0  0  0
    5.0042   -2.7875    0.0000 N   0  0  0  0  0  0  0  0  0  0  0  0
    3.5792   -2.7917    0.0000 C   0  0  0  0  0  0  0  0  0  0  0  0
    4.2917   -3.2042    0.0000 C   0  0  0  0  0  0  0  0  0  0  0  0
    4.2875   -1.5500    0.0000 N   0  0  0  0  0  0  0  0  0  0  0  0
    3.5792   -1.9667    0.0000 C   0  0  0  0  0  0  0  0  0  0  0  0
    5.7167   -1.5417    0.0000 N   0  0  0  0  0  0  0  0  0  0  0  0
    7.1417   -0.7167    0.0000 N   0  0  0  0  0  0  0  0  0  0  0  0
    2.8625   -3.2042    0.0000 C   0  0  0  0  0  0  0  0  0  0  0  0
    7.8542   -0.3000    0.0000 C   0  0  0  0  0  0  0  0  0  0  0  0
    2.8625   -1.5542    0.0000 C   0  0  0  0  0  0  0  0  0  0  0  0
    2.1500   -2.7917    0.0000 C   0  0  0  0  0  0  0  0  0  0  0  0
    2.1500   -1.9667    0.0000 C   0  0  0  0  0  0  0  0  0  0  0  0
   10.0042   -3.1792    0.0000 C   0  0  0  0  0  0  0  0  0  0  0  0
    6.4292   -1.9542    0.0000 C   0  0  0  0  0  0  0  0  0  0  0  0
    5.7125   -0.7167    0.0000 C   0  0  0  0  0  0  0  0  0  0  0  0
    6.4250   -0.3042    0.0000 C   0  0  0  0  0  0  0  0  0  0  0  0
    7.1417   -1.5417    0.0000 C   0  0  0  0  0  0  0  0  0  0  0  0
    8.5667   -0.7125    0.0000 C   0  0  0  0  0  0  0  0  0  0  0  0
    9.2917   -2.7750    0.0000 C   0  0  0  0  0  0  0  0  0  0  0  0
    7.8542    0.5250    0.0000 O   0  0  0  0  0  0  0  0  0  0  0  0
    8.5750   -1.5375    0.0000 C   0  0  0  0  0  0  0  0  0  0  0  0
    9.2917   -1.9500    0.0000 C   0  0  0  0  0  0  0  0  0  0  0  0
   10.0042   -4.0042    0.0000 O   0  0  0  0  0  0  0  0  0  0  0  0
    4.2917   -4.0292    0.0000 N   0  0  0  0  0  0  0  0  0  0  0  0
    1.4292   -3.2042    0.0000 O   0  0  0  0  0  0  0  0  0  0  0  0
    1.4375   -1.5542    0.0000 O   0  0  0  0  0  0  0  0  0  0  0  0
   10.7167   -2.7667    0.0000 O   0  0  0  0  0  0  0  0  0  0  0  0
    0.7167   -2.7917    0.0000 C   0  0  0  0  0  0  0  0  0  0  0  0
    0.7167   -1.9667    0.0000 C   0  0  0  0  0  0  0  0  0  0  0  0
   11.4375   -3.1792    0.0000 C   0  0  0  0  0  0  0  0  0  0  0  0
  2  1  1  0
  3  6  1  0
  4  2  2  0
  5  1  2  0
  6  5  1  0
  7  1  1  0
  8 17  1  0
  9  3  2  0
 10  8  1  0
 11  6  2  0
 12 13  2  0
 13 11  1  0
 14 20  1  0
 15  7  1  0
 16  7  1  0
 17 16  1  0
 18 15  1  0
 19 10  1  0
 20 23  2  0
 21 10  2  0
 22 19  2  0
 23 22  1  0
 24 14  2  0
 25  4  1  0
 26 12  1  0
 27 13  1  0
 28 14  1  0
 29 26  1  0
 30 27  1  0
 31 28  1  0
  3  4  1  0
 18  8  1  0
  9 12  1  0
M  END

> <chembl_id>
CHEMBL6306

> <chembl_pref_name>
None

$$$$

     RDKit          2D

 32 36  0  0  0  0  0  0  0  0999 V2000
    5.5375   -0.1792    0.0000 C   0  0  0  0  0  0  0  0  0  0  0  0
    5.9417   -0.8917    0.0000 O   0  0  0  0  0  0  0  0  0  0  0  0
    6.3625   -0.1667    0.0000 C   0  0  0  0  0  0  0  0  0  0  0  0
    1.9667   -1.4250    0.0000 C   0  0  0  0  0  0  0  0  0  0  0  0
    1.9750   -2.2542    0.0000 N   0  0  0  0  0  0  0  0  0  0  0  0
    4.8250    0.2333    0.0000 C   0  0  0  0  0  0  0  0  0  0  0  0
    0.5417   -2.2542    0.0000 C   0  0  0  0  0  0  0  0  0  0  0  0
    1.2625   -2.6667    0.0000 C   0  0  0  0  0  0  0  0  0  0  0  0
    1.2542   -1.0167    0.0000 N   0  0  0  0  0  0  0  0  0  0  0  0
    0.5417   -1.4292    0.0000 C   0  0  0  0  0  0  0  0  0  0  0  0
    2.6792   -1.0125    0.0000 N   0  0  0  0  0  0  0  0  0  0  0  0
    4.1042   -0.1792    0.0000 N   0  0  0  0  0  0  0  0  0  0  0  0
   -0.1708   -2.6750    0.0000 C   0  0  0  0  0  0  0  0  0  0  0  0
   -0.1708   -1.0167    0.0000 C   0  0  0  0  0  0  0  0  0  0  0  0
   -0.8833   -2.2625    0.0000 C   0  0  0  0  0  0  0  0  0  0  0  0
   -0.8833   -1.4375    0.0000 C   0  0  0  0  0  0  0  0  0  0  0  0
    7.0750    0.2458    0.0000 C   0  0  0  0  0  0  0  0  0  0  0  0
    4.8167    1.0583    0.0000 O   0  0  0  0  0  0  0  0  0  0  0  0
    3.4000   -1.4167    0.0000 C   0  0  0  0  0  0  0  0  0  0  0  0
    2.6792   -0.1875    0.0000 C   0  0  0  0  0  0  0  0  0  0  0  0
    3.3917    0.2333    0.0000 C   0  0  0  0  0  0  0  0  0  0  0  0
    4.1125   -1.0042    0.0000 C   0  0  0  0  0  0  0  0  0  0  0  0
    1.2542   -3.4917    0.0000 N   0  0  0  0  0  0  0  0  0  0  0  0
   -1.6000   -2.6750    0.0000 O   0  0  0  0  0  0  0  0  0  0  0  0
   -1.5958   -1.0250    0.0000 O   0  0  0  0  0  0  0  0  0  0  0  0
    7.7875   -0.1667    0.0000 C   0  0  0  0  0  0  0  0  0  0  0  0
    7.0625    1.0708    0.0000 C   0  0  0  0  0  0  0  0  0  0  0  0
   -2.3125   -1.4375    0.0000 C   0  0  0  0  0  0  0  0  0  0  0  0
   -2.3125   -2.2625    0.0000 C   0  0  0  0  0  0  0  0  0  0  0  0
    7.7750    1.4833    0.0000 C   0  0  0  0  0  0  0  0  0  0  0  0
    8.4917    0.2500    0.0000 C   0  0  0  0  0  0  0  0  0  0  0  0
    8.4917    1.0750    0.0000 C   0  0  0  0  0  0  0  0  0  0  0  0
  2  1  1  0
  3  1  1  0
  4 11  1  0
  5  4  1  0
  6  1  1  0
  7 10  1  0
  8  5  2  0
  9  4  2  0
 10  9  1  0
 11 19  1  0
 12  6  1  0
 13  7  2  0
 14 10  2  0
 15 16  2  0
 16 14  1  0
 17  3  1  0
 18  6  2  0
 19 22  1  0
 20 21  1  0
 21 12  1  0
 22 12  1  0
 23  8  1  0
 24 15  1  0
 25 16  1  0
 26 17  2  0
 27 17  1  0
 28 25  1  0
 29 24  1  0
 30 27  2  0
 31 26  1  0
 32 30  1  0
  2  3  1  0
 20 11  1  0
 31 32  2  0
  7  8  1  0
 13 15  1  0
M  END

> <chembl_id>
CHEMBL415103

> <chembl_pref_name>
None

$$$$

     RDKit          2D

 33 36  0  0  0  0  0  0  0  0999 V2000
    1.9667   -1.4250    0.0000 C   0  0  0  0  0  0  0  0  0  0  0  0
    1.9750   -2.2542    0.0000 N   0  0  0  0  0  0  0  0  0  0  0  0
    0.5417   -2.2542    0.0000 C   0  0  0  0  0  0  0  0  0  0  0  0
    1.2625   -2.6667    0.0000 C   0  0  0  0  0  0  0  0  0  0  0  0
    1.2542   -1.0167    0.0000 N   0  0  0  0  0  0  0  0  0  0  0  0
    0.5417   -1.4292    0.0000 C   0  0  0  0  0  0  0  0  0  0  0  0
    2.6792   -1.0125    0.0000 N   0  0  0  0  0  0  0  0  0  0  0  0
    4.1042   -0.1792    0.0000 N   0  0  0  0  0  0  0  0  0  0  0  0
    4.8250    0.2333    0.0000 C   0  0  0  0  0  0  0  0  0  0  0  0
   -0.1708   -2.6750    0.0000 C   0  0  0  0  0  0  0  0  0  0  0  0
   -0.1708   -1.0167    0.0000 C   0  0  0  0  0  0  0  0  0  0  0  0
    5.5375   -0.1792    0.0000 C   0  0  0  0  0  0  0  0  0  0  0  0
    5.5417   -1.0042    0.0000 C   0  0  0  0  0  0  0  0  0  0  0  0
   -0.8833   -2.2625    0.0000 C   0  0  0  0  0  0  0  0  0  0  0  0
   -0.8833   -1.4375    0.0000 C   0  0  0  0  0  0  0  0  0  0  0  0
    6.2542   -1.4167    0.0000 C   0  0  0  0  0  0  0  0  0  0  0  0
    3.4000   -1.4167    0.0000 C   0  0  0  0  0  0  0  0  0  0  0  0
    2.6792   -0.1875    0.0000 C   0  0  0  0  0  0  0  0  0  0  0  0
    3.3917    0.2333    0.0000 C   0  0  0  0  0  0  0  0  0  0  0  0
    4.1125   -1.0042    0.0000 C   0  0  0  0  0  0  0  0  0  0  0  0
    4.8167    1.0583    0.0000 O   0  0  0  0  0  0  0  0  0  0  0  0
    1.2542   -3.4917    0.0000 N   0  0  0  0  0  0  0  0  0  0  0  0
    6.2542   -2.2417    0.0000 O   0  0  0  0  0  0  0  0  0  0  0  0
    6.9667   -1.0042    0.0000 C   0  0  0  0  0  0  0  0  0  0  0  0
   -1.6000   -2.6750    0.0000 O   0  0  0  0  0  0  0  0  0  0  0  0
   -1.5958   -1.0250    0.0000 O   0  0  0  0  0  0  0  0  0  0  0  0
    7.6792   -1.4167    0.0000 C   0  0  0  0  0  0  0  0  0  0  0  0
    6.9667   -0.1792    0.0000 C   0  0  0  0  0  0  0  0  0  0  0  0
   -2.3125   -2.2625    0.0000 C   0  0  0  0  0  0  0  0  0  0  0  0
   -2.3125   -1.4375    0.0000 C   0  0  0  0  0  0  0  0  0  0  0  0
    7.6792    0.2333    0.0000 C   0  0  0  0  0  0  0  0  0  0  0  0
    8.3917   -1.0042    0.0000 C   0  0  0  0  0  0  0  0  0  0  0  0
    8.3917   -0.1792    0.0000 C   0  0  0  0  0  0  0  0  0  0  0  0
  2  1  1  0
  3  6  1  0
  4  2  2  0
  5  1  2  0
  6  5  1  0
  7  1  1  0
  8 19  1  0
  9  8  1  0
 10  3  2  0
 11  6  2  0
 12  9  1  0
 13 12  2  0
 14 15  2  0
 15 11  1  0
 16 13  1  0
 17  7  1  0
 18  7  1  0
 19 18  1  0
 20 17  1  0
 21  9  2  0
 22  4  1  0
 23 16  2  0
 24 16  1  0
 25 14  1  0
 26 15  1  0
 27 24  2  0
 28 24  1  0
 29 25  1  0
 30 26  1  0
 31 28  2  0
 32 27  1  0
 33 31  1  0
  3  4  1  0
 20  8  1  0
 10 14  1  0
 32 33  2  0
M  END

> <chembl_id>
CHEMBL6321

> <chembl_pref_name>
None

$$$$

     RDKit          2D

 33 37  0  0  0  0  0  0  0  0999 V2000
    1.9667   -1.4250    0.0000 C   0  0  0  0  0  0  0  0  0  0  0  0
    1.9750   -2.2542    0.0000 N   0  0  0  0  0  0  0  0  0  0  0  0
    0.5417   -2.2542    0.0000 C   0  0  0  0  0  0  0  0  0  0  0  0
    1.2625   -2.6667    0.0000 C   0  0  0  0  0  0  0  0  0  0  0  0
    1.2542   -1.0167    0.0000 N   0  0  0  0  0  0  0  0  0  0  0  0
    0.5417   -1.4292    0.0000 C   0  0  0  0  0  0  0  0  0  0  0  0
    4.8250    0.2333    0.0000 C   0  0  0  0  0  0  0  0  0  0  0  0
    2.6792   -1.0125    0.0000 N   0  0  0  0  0  0  0  0  0  0  0  0
    4.1042   -0.1792    0.0000 N   0  0  0  0  0  0  0  0  0  0  0  0
   -0.1708   -2.6750    0.0000 C   0  0  0  0  0  0  0  0  0  0  0  0
    5.5375   -0.1792    0.0000 C   0  0  0  0  0  0  0  0  0  0  0  0
   -0.1708   -1.0167    0.0000 C   0  0  0  0  0  0  0  0  0  0  0  0
   -0.8833   -2.2625    0.0000 C   0  0  0  0  0  0  0  0  0  0  0  0
   -0.8833   -1.4375    0.0000 C   0  0  0  0  0  0  0  0  0  0  0  0
    5.5417   -1.0042    0.0000 C   0  0  0  0  0  0  0  0  0  0  0  0
    6.2542   -1.4167    0.0000 C   0  0  0  0  0  0  0  0  0  0  0  0
    3.4000   -1.4167    0.0000 C   0  0  0  0  0  0  0  0  0  0  0  0
    2.6792   -0.1875    0.0000 C   0  0  0  0  0  0  0  0  0  0  0  0
    3.3917    0.2333    0.0000 C   0  0  0  0  0  0  0  0  0  0  0  0
    4.1125   -1.0042    0.0000 C   0  0  0  0  0  0  0  0  0  0  0  0
    4.8167    1.0583    0.0000 O   0  0  0  0  0  0  0  0  0  0  0  0
    6.2500    0.2333    0.0000 C   0  0  0  0  0  0  0  0  0  0  0  0
    1.2542   -3.4917    0.0000 N   0  0  0  0  0  0  0  0  0  0  0  0
    6.9667   -1.0042    0.0000 C   0  0  0  0  0  0  0  0  0  0  0  0
    6.9667   -0.1792    0.0000 C   0  0  0  0  0  0  0  0  0  0  0  0
   -1.6000   -2.6750    0.0000 O   0  0  0  0  0  0  0  0  0  0  0  0
   -1.5958   -1.0250    0.0000 O   0  0  0  0  0  0  0  0  0  0  0  0
    6.2542   -2.2417    0.0000 C   0  0  0  0  0  0  0  0  0  0  0  0
    7.6792   -1.4125    0.0000 C   0  0  0  0  0  0  0  0  0  0  0  0
   -2.3125   -1.4375    0.0000 C   0  0  0  0  0  0  0  0  0  0  0  0
   -2.3125   -2.2625    0.0000 C   0  0  0  0  0  0  0  0  0  0  0  0
    6.9667   -2.6542    0.0000 C   0  0  0  0  0  0  0  0  0  0  0  0
    7.6875   -2.2375    0.0000 C   0  0  0  0  0  0  0  0  0  0  0  0
  2  1  1  0
  3  6  1  0
  4  2  2  0
  5  1  2  0
  6  5  1  0
  7  9  1  0
  8  1  1  0
  9 19  1  0
 10  3  2  0
 11  7  1  0
 12  6  2  0
 13 14  2  0
 14 12  1  0
 15 11  2  0
 16 15  1  0
 17  8  1  0
 18  8  1  0
 19 18  1  0
 20 17  1  0
 21  7  2  0
 22 11  1  0
 23  4  1  0
 24 25  1  0
 25 22  2  0
 26 13  1  0
 27 14  1  0
 28 16  1  0
 29 24  1  0
 30 27  1  0
 31 26  1  0
 32 28  2  0
 33 29  2  0
  3  4  1  0
 20  9  1  0
 10 13  1  0
 16 24  2  0
 33 32  1  0
M  END

> <chembl_id>
CHEMBL6323

> <chembl_pref_name>
None

$$$$

     RDKit          2D

 33 36  0  0  0  0  0  0  0  0999 V2000
    1.9667   -1.4250    0.0000 C   0  0  0  0  0  0  0  0  0  0  0  0
    1.9750   -2.2542    0.0000 N   0  0  0  0  0  0  0  0  0  0  0  0
    0.5417   -2.2542    0.0000 C   0  0  0  0  0  0  0  0  0  0  0  0
    1.2625   -2.6667    0.0000 C   0  0  0  0  0  0  0  0  0  0  0  0
    1.2542   -1.0167    0.0000 N   0  0  0  0  0  0  0  0  0  0  0  0
    4.8250    0.2333    0.0000 C   0  0  0  0  0  0  0  0  0  0  0  0
    0.5417   -1.4292    0.0000 C   0  0  0  0  0  0  0  0  0  0  0  0
    2.6792   -1.0125    0.0000 N   0  0  0  0  0  0  0  0  0  0  0  0
    9.1000    1.8958    0.0000 N   0  0  0  0  0  0  0  0  0  0  0  0
    4.1042   -0.1792    0.0000 N   0  0  0  0  0  0  0  0  0  0  0  0
   -0.1708   -2.6750    0.0000 C   0  0  0  0  0  0  0  0  0  0  0  0
   -0.1708   -1.0167    0.0000 C   0  0  0  0  0  0  0  0  0  0  0  0
    9.8167    2.3083    0.0000 N   0  0  0  0  0  0  0  0  0  0  0  0
    5.5375   -0.1792    0.0000 N   0  0  0  0  0  0  0  0  0  0  0  0
   -0.8833   -2.2625    0.0000 C   0  0  0  0  0  0  0  0  0  0  0  0
   -0.8833   -1.4375    0.0000 C   0  0  0  0  0  0  0  0  0  0  0  0
    8.3917    1.4750    0.0000 N   0  0  0  0  0  0  0  0  0  0  0  0
    4.8167    1.0583    0.0000 S   0  0  0  0  0  0  0  0  0  0  0  0
    3.4000   -1.4167    0.0000 C   0  0  0  0  0  0  0  0  0  0  0  0
    2.6792   -0.1875    0.0000 C   0  0  0  0  0  0  0  0  0  0  0  0
    3.3917    0.2333    0.0000 C   0  0  0  0  0  0  0  0  0  0  0  0
    4.1125   -1.0042    0.0000 C   0  0  0  0  0  0  0  0  0  0  0  0
    1.2542   -3.4917    0.0000 N   0  0  0  0  0  0  0  0  0  0  0  0
    6.2542    0.2333    0.0000 C   0  0  0  0  0  0  0  0  0  0  0  0
    7.6792    1.0583    0.0000 C   0  0  0  0  0  0  0  0  0  0  0  0
   -1.6000   -2.6750    0.0000 O   0  0  0  0  0  0  0  0  0  0  0  0
   -1.5958   -1.0250    0.0000 O   0  0  0  0  0  0  0  0  0  0  0  0
    6.2500    1.0583    0.0000 C   0  0  0  0  0  0  0  0  0  0  0  0
    6.9667   -0.1792    0.0000 C   0  0  0  0  0  0  0  0  0  0  0  0
    7.6792    0.2333    0.0000 C   0  0  0  0  0  0  0  0  0  0  0  0
    6.9542    1.4708    0.0000 C   0  0  0  0  0  0  0  0  0  0  0  0
   -2.3125   -1.4375    0.0000 C   0  0  0  0  0  0  0  0  0  0  0  0
   -2.3125   -2.2625    0.0000 C   0  0  0  0  0  0  0  0  0  0  0  0
  2  1  2  0
  3  7  1  0
  4  2  1  0
  5  1  1  0
  6 10  1  0
  7  5  2  0
  8  1  1  0
  9 17  2  0
 10 21  1  0
 11  3  1  0
 12  7  1  0
 13  9  2  0
 14  6  2  0
 15 16  1  0
 16 12  2  0
 17 25  1  0
 18  6  1  0
 19  8  1  0
 20  8  1  0
 21 20  1  0
 22 19  1  0
 23  4  1  0
 24 14  1  0
 25 30  1  0
 26 15  1  0
 27 16  1  0
 28 24  2  0
 29 24  1  0
 30 29  2  0
 31 28  1  0
 32 27  1  0
 33 26  1  0
  3  4  2  0
 22 10  1  0
 11 15  2  0
 31 25  2  0
M  CHG  2   9   1  13  -1
M  END

> <chembl_id>
CHEMBL6313

> <chembl_pref_name>
None

$$$$

     RDKit          2D

 31 34  0  0  0  0  0  0  0  0999 V2000
    1.9667   -1.4250    0.0000 C   0  0  0  0  0  0  0  0  0  0  0  0
    1.9750   -2.2542    0.0000 N   0  0  0  0  0  0  0  0  0  0  0  0
    0.5417   -2.2542    0.0000 C   0  0  0  0  0  0  0  0  0  0  0  0
    1.2625   -2.6667    0.0000 C   0  0  0  0  0  0  0  0  0  0  0  0
    1.2542   -1.0167    0.0000 N   0  0  0  0  0  0  0  0  0  0  0  0
    0.5417   -1.4292    0.0000 C   0  0  0  0  0  0  0  0  0  0  0  0
    4.8250    0.2333    0.0000 C   0  0  0  0  0  0  0  0  0  0  0  0
    2.6792   -1.0125    0.0000 N   0  0  0  0  0  0  0  0  0  0  0  0
    4.1042   -0.1792    0.0000 N   0  0  0  0  0  0  0  0  0  0  0  0
   -0.1708   -2.6750    0.0000 C   0  0  0  0  0  0  0  0  0  0  0  0
   -0.1708   -1.0167    0.0000 C   0  0  0  0  0  0  0  0  0  0  0  0
    5.5375   -0.1792    0.0000 C   0  0  0  0  0  0  0  0  0  0  0  0
   -0.8833   -2.2625    0.0000 C   0  0  0  0  0  0  0  0  0  0  0  0
   -0.8833   -1.4375    0.0000 C   0  0  0  0  0  0  0  0  0  0  0  0
    3.4000   -1.4167    0.0000 C   0  0  0  0  0  0  0  0  0  0  0  0
    2.6792   -0.1875    0.0000 C   0  0  0  0  0  0  0  0  0  0  0  0
    3.3917    0.2333    0.0000 C   0  0  0  0  0  0  0  0  0  0  0  0
    4.1125   -1.0042    0.0000 C   0  0  0  0  0  0  0  0  0  0  0  0
    4.8167    1.0583    0.0000 O   0  0  0  0  0  0  0  0  0  0  0  0
    6.2500    0.2375    0.0000 C   0  0  0  0  0  0  0  0  0  0  0  0
    1.2542   -3.4917    0.0000 N   0  0  0  0  0  0  0  0  0  0  0  0
    6.9625   -0.1667    0.0000 C   0  0  0  0  0  0  0  0  0  0  0  0
   -1.6000   -2.6750    0.0000 O   0  0  0  0  0  0  0  0  0  0  0  0
   -1.5958   -1.0250    0.0000 O   0  0  0  0  0  0  0  0  0  0  0  0
    8.3917   -0.1542    0.0000 Cl  0  0  0  0  0  0  0  0  0  0  0  0
    5.5375   -1.0042    0.0000 C   0  0  0  0  0  0  0  0  0  0  0  0
    6.2542   -1.4125    0.0000 C   0  0  0  0  0  0  0  0  0  0  0  0
    7.6750    0.2458    0.0000 C   0  0  0  0  0  0  0  0  0  0  0  0
    6.9667   -1.0000    0.0000 C   0  0  0  0  0  0  0  0  0  0  0  0
   -2.3125   -1.4375    0.0000 C   0  0  0  0  0  0  0  0  0  0  0  0
   -2.3125   -2.2625    0.0000 C   0  0  0  0  0  0  0  0  0  0  0  0
  2  1  1  0
  3  6  1  0
  4  2  2  0
  5  1  2  0
  6  5  1  0
  7  9  1  0
  8  1  1  0
  9 17  1  0
 10  3  2  0
 11  6  2  0
 12  7  1  0
 13 14  2  0
 14 11  1  0
 15  8  1  0
 16  8  1  0
 17 16  1  0
 18 15  1  0
 19  7  2  0
 20 12  1  0
 21  4  1  0
 22 20  2  0
 23 13  1  0
 24 14  1  0
 25 28  1  0
 26 12  2  0
 27 26  1  0
 28 22  1  0
 29 27  2  0
 30 24  1  0
 31 23  1  0
  3  4  1  0
 18  9  1  0
 10 13  1  0
 22 29  1  0
M  END

> <chembl_id>
CHEMBL266081

> <chembl_pref_name>
None

$$$$

     RDKit          2D

 34 37  0  0  0  0  0  0  0  0999 V2000
    5.0042   -1.9542    0.0000 C   0  0  0  0  0  0  0  0  0  0  0  0
    5.0042   -2.7875    0.0000 N   0  0  0  0  0  0  0  0  0  0  0  0
    3.5792   -2.7917    0.0000 C   0  0  0  0  0  0  0  0  0  0  0  0
    4.2917   -3.2042    0.0000 C   0  0  0  0  0  0  0  0  0  0  0  0
    4.2875   -1.5500    0.0000 N   0  0  0  0  0  0  0  0  0  0  0  0
    3.5792   -1.9667    0.0000 C   0  0  0  0  0  0  0  0  0  0  0  0
    5.7167   -1.5417    0.0000 N   0  0  0  0  0  0  0  0  0  0  0  0
    7.1417   -0.7167    0.0000 N   0  0  0  0  0  0  0  0  0  0  0  0
    7.8542   -0.3000    0.0000 C   0  0  0  0  0  0  0  0  0  0  0  0
    2.8625   -3.2042    0.0000 C   0  0  0  0  0  0  0  0  0  0  0  0
    2.8625   -1.5542    0.0000 C   0  0  0  0  0  0  0  0  0  0  0  0
   12.1500   -3.5917    0.0000 C   0  0  0  0  0  0  0  0  0  0  0  0
    8.5667   -0.7125    0.0000 C   0  0  0  0  0  0  0  0  0  0  0  0
    2.1500   -2.7917    0.0000 C   0  0  0  0  0  0  0  0  0  0  0  0
    2.1500   -1.9667    0.0000 C   0  0  0  0  0  0  0  0  0  0  0  0
   11.4292   -3.1792    0.0000 N   0  0  0  0  0  0  0  0  0  0  0  0
    8.5750   -1.5375    0.0000 C   0  0  0  0  0  0  0  0  0  0  0  0
   12.8667   -4.0042    0.0000 S   0  0  0  0  0  0  0  0  0  0  0  0
    6.4292   -1.9542    0.0000 C   0  0  0  0  0  0  0  0  0  0  0  0
    5.7125   -0.7167    0.0000 C   0  0  0  0  0  0  0  0  0  0  0  0
    6.4250   -0.3042    0.0000 C   0  0  0  0  0  0  0  0  0  0  0  0
    7.1417   -1.5417    0.0000 C   0  0  0  0  0  0  0  0  0  0  0  0
    7.8542    0.5250    0.0000 O   0  0  0  0  0  0  0  0  0  0  0  0
    4.2917   -4.0292    0.0000 N   0  0  0  0  0  0  0  0  0  0  0  0
    9.2917   -1.9500    0.0000 C   0  0  0  0  0  0  0  0  0  0  0  0
   10.7167   -2.7667    0.0000 C   0  0  0  0  0  0  0  0  0  0  0  0
    1.4292   -3.2042    0.0000 O   0  0  0  0  0  0  0  0  0  0  0  0
    1.4375   -1.5542    0.0000 O   0  0  0  0  0  0  0  0  0  0  0  0
   10.0000   -1.5292    0.0000 C   0  0  0  0  0  0  0  0  0  0  0  0
    9.2875   -2.7750    0.0000 C   0  0  0  0  0  0  0  0  0  0  0  0
   10.0042   -3.1792    0.0000 C   0  0  0  0  0  0  0  0  0  0  0  0
   10.7042   -1.9417    0.0000 C   0  0  0  0  0  0  0  0  0  0  0  0
    0.7167   -2.7917    0.0000 C   0  0  0  0  0  0  0  0  0  0  0  0
    0.7167   -1.9667    0.0000 C   0  0  0  0  0  0  0  0  0  0  0  0
  2  1  1  0
  3  6  1  0
  4  2  2  0
  5  1  2  0
  6  5  1  0
  7  1  1  0
  8 21  1  0
  9  8  1  0
 10  3  2  0
 11  6  2  0
 12 16  2  0
 13  9  1  0
 14 15  2  0
 15 11  1  0
 16 26  1  0
 17 13  2  0
 18 12  2  0
 19  7  1  0
 20  7  1  0
 21 20  1  0
 22 19  1  0
 23  9  2  0
 24  4  1  0
 25 17  1  0
 26 31  2  0
 27 14  1  0
 28 15  1  0
 29 25  1  0
 30 25  2  0
 31 30  1  0
 32 29  2  0
 33 27  1  0
 34 28  1  0
  3  4  1  0
 22  8  1  0
 10 14  1  0
 32 26  1  0
M  END

> <chembl_id>
CHEMBL6314

> <chembl_pref_name>
None

$$$$

     RDKit          2D

 36 39  0  0  0  0  0  0  0  0999 V2000
    5.0042   -1.9542    0.0000 C   0  0  0  0  0  0  0  0  0  0  0  0
    5.0042   -2.7875    0.0000 N   0  0  0  0  0  0  0  0  0  0  0  0
    3.5792   -2.7917    0.0000 C   0  0  0  0  0  0  0  0  0  0  0  0
    4.2917   -3.2042    0.0000 C   0  0  0  0  0  0  0  0  0  0  0  0
    4.2875   -1.5500    0.0000 N   0  0  0  0  0  0  0  0  0  0  0  0
    3.5792   -1.9667    0.0000 C   0  0  0  0  0  0  0  0  0  0  0  0
    5.7167   -1.5417    0.0000 N   0  0  0  0  0  0  0  0  0  0  0  0
    7.1417   -0.7167    0.0000 N   0  0  0  0  0  0  0  0  0  0  0  0
    7.8542   -0.3000    0.0000 C   0  0  0  0  0  0  0  0  0  0  0  0
    2.8625   -3.2042    0.0000 C   0  0  0  0  0  0  0  0  0  0  0  0
    2.8625   -1.5542    0.0000 C   0  0  0  0  0  0  0  0  0  0  0  0
    8.5667   -0.7125    0.0000 C   0  0  0  0  0  0  0  0  0  0  0  0
    2.1500   -2.7917    0.0000 C   0  0  0  0  0  0  0  0  0  0  0  0
    2.1500   -1.9667    0.0000 C   0  0  0  0  0  0  0  0  0  0  0  0
    8.5750   -1.5375    0.0000 C   0  0  0  0  0  0  0  0  0  0  0  0
   12.1417   -2.7667    0.0000 C   0  0  0  0  0  0  0  0  0  0  0  0
   11.4292   -3.1792    0.0000 N   0  0  0  0  0  0  0  0  0  0  0  0
    5.7125   -0.7167    0.0000 C   0  0  0  0  0  0  0  0  0  0  0  0
    6.4292   -1.9542    0.0000 C   0  0  0  0  0  0  0  0  0  0  0  0
    7.1417   -1.5417    0.0000 C   0  0  0  0  0  0  0  0  0  0  0  0
    6.4250   -0.3042    0.0000 C   0  0  0  0  0  0  0  0  0  0  0  0
    7.8542    0.5250    0.0000 O   0  0  0  0  0  0  0  0  0  0  0  0
   12.1417   -1.9417    0.0000 O   0  0  0  0  0  0  0  0  0  0  0  0
    4.2917   -4.0292    0.0000 N   0  0  0  0  0  0  0  0  0  0  0  0
    9.2917   -1.9500    0.0000 C   0  0  0  0  0  0  0  0  0  0  0  0
   10.7167   -2.7667    0.0000 C   0  0  0  0  0  0  0  0  0  0  0  0
    1.4292   -3.2042    0.0000 O   0  0  0  0  0  0  0  0  0  0  0  0
    1.4375   -1.5542    0.0000 O   0  0  0  0  0  0  0  0  0  0  0  0
   10.0000   -1.5292    0.0000 C   0  0  0  0  0  0  0  0  0  0  0  0
    9.2875   -2.7750    0.0000 C   0  0  0  0  0  0  0  0  0  0  0  0
   10.0042   -3.1792    0.0000 C   0  0  0  0  0  0  0  0  0  0  0  0
   10.7042   -1.9417    0.0000 C   0  0  0  0  0  0  0  0  0  0  0  0
   13.5750   -2.7542    0.0000 Br  0  0  0  0  0  0  0  0  0  0  0  0
   12.8625   -3.1750    0.0000 C   0  0  0  0  0  0  0  0  0  0  0  0
    0.7167   -2.7917    0.0000 C   0  0  0  0  0  0  0  0  0  0  0  0
    0.7167   -1.9667    0.0000 C   0  0  0  0  0  0  0  0  0  0  0  0
  2  1  1  0
  3  6  1  0
  4  2  2  0
  5  1  2  0
  6  5  1  0
  7  1  1  0
  8 20  1  0
  9  8  1  0
 10  3  2  0
 11  6  2  0
 12  9  1  0
 13 14  2  0
 14 11  1  0
 15 12  2  0
 16 17  1  0
 17 26  1  0
 18  7  1  0
 19  7  1  0
 20 19  1  0
 21 18  1  0
 22  9  2  0
 23 16  2  0
 24  4  1  0
 25 15  1  0
 26 31  2  0
 27 13  1  0
 28 14  1  0
 29 25  1  0
 30 25  2  0
 31 30  1  0
 32 29  2  0
 33 34  1  0
 34 16  1  0
 35 27  1  0
 36 28  1  0
  3  4  1  0
 21  8  1  0
 13 10  1  0
 32 26  1  0
M  END

> <chembl_id>
CHEMBL6343

> <chembl_pref_name>
None

$$$$

     RDKit          2D

 18 20  0  0  0  0  0  0  0  0999 V2000
    6.5250   -2.4417    0.0000 C   0  0  0  0  0  0  0  0  0  0  0  0
    6.5250   -1.6167    0.0000 O   0  0  0  0  0  0  0  0  0  0  0  0
    5.8125   -1.2042    0.0000 C   0  0  0  0  0  0  0  0  0  0  0  0
    5.8125   -2.8542    0.0000 C   0  0  0  0  0  0  0  0  0  0  0  0
    5.1000   -1.6167    0.0000 C   0  0  0  0  0  0  0  0  0  0  0  0
    5.1000   -2.4417    0.0000 C   0  0  0  0  0  0  0  0  0  0  0  0
    7.2417   -2.8542    0.0000 C   0  0  0  0  0  0  0  0  0  0  0  0
    5.8125   -3.6875    0.0000 C   0  0  0  0  0  0  0  0  0  0  0  0
    4.3875   -2.8542    0.0000 C   0  0  0  0  0  0  0  0  0  0  0  0
    7.2417   -3.6875    0.0000 C   0  0  0  0  0  0  0  0  0  0  0  0
    4.3875   -1.2042    0.0000 C   0  0  0  0  0  0  0  0  0  0  0  0
    5.8125   -0.3792    0.0000 O   0  0  0  0  0  0  0  0  0  0  0  0
    6.5250   -4.1000    0.0000 C   0  0  0  0  0  0  0  0  0  0  0  0
    7.9542   -2.4375    0.0000 O   0  0  0  0  0  0  0  0  0  0  0  0
    3.6667   -1.6250    0.0000 C   0  0  0  0  0  0  0  0  0  0  0  0
    3.6667   -2.4417    0.0000 C   0  0  0  0  0  0  0  0  0  0  0  0
    7.9667   -4.1042    0.0000 O   0  0  0  0  0  0  0  0  0  0  0  0
    2.9500   -1.2042    0.0000 O   0  0  0  0  0  0  0  0  0  0  0  0
  2  1  1  0
  3  2  1  0
  4  1  2  0
  5  6  1  0
  6  4  1  0
  7  1  1  0
  8  4  1  0
  9  6  2  0
 10  7  2  0
 11  5  2  0
 12  3  2  0
 13 10  1  0
 14  7  1  0
 15 16  2  0
 16  9  1  0
 17 10  1  0
 18 15  1  0
  8 13  2  0
  5  3  1  0
 11 15  1  0
M  END

> <chembl_id>
CHEMBL204146

> <chembl_pref_name>
None

$$$$

     RDKit          2D

 15 17  0  0  0  0  0  0  0  0999 V2000
    0.2417    0.6958    0.0000 C   0  0  0  0  0  0  0  0  0  0  0  0
    0.9542    0.2833    0.0000 O   0  0  0  0  0  0  0  0  0  0  0  0
   -0.4708   -0.5417    0.0000 C   0  0  0  0  0  0  0  0  0  0  0  0
   -0.4708    0.2833    0.0000 C   0  0  0  0  0  0  0  0  0  0  0  0
    0.2417   -0.9542    0.0000 C   0  0  0  0  0  0  0  0  0  0  0  0
    0.9542   -0.5417    0.0000 C   0  0  0  0  0  0  0  0  0  0  0  0
    0.2417    1.5208    0.0000 O   0  0  0  0  0  0  0  0  0  0  0  0
   -1.1833   -0.9542    0.0000 C   0  0  0  0  0  0  0  0  0  0  0  0
   -1.1833    0.6958    0.0000 C   0  0  0  0  0  0  0  0  0  0  0  0
    0.2417   -1.7875    0.0000 C   0  0  0  0  0  0  0  0  0  0  0  0
    1.6750   -0.9542    0.0000 C   0  0  0  0  0  0  0  0  0  0  0  0
   -1.9083   -0.5417    0.0000 C   0  0  0  0  0  0  0  0  0  0  0  0
   -1.9083    0.2750    0.0000 C   0  0  0  0  0  0  0  0  0  0  0  0
    0.9542   -2.2000    0.0000 C   0  0  0  0  0  0  0  0  0  0  0  0
    1.6750   -1.7875    0.0000 C   0  0  0  0  0  0  0  0  0  0  0  0
  2  1  1  0
  3  4  1  0
  4  1  1  0
  5  3  1  0
  6  2  1  0
  7  1  2  0
  8  3  2  0
  9  4  2  0
 10  5  1  0
 11  6  1  0
 12 13  2  0
 13  9  1  0
 14 10  2  0
 15 11  2  0
  6  5  2  0
  8 12  1  0
 15 14  1  0
M  END

> <chembl_id>
CHEMBL6355

> <chembl_pref_name>
None

$$$$

     RDKit          2D

 17 19  0  0  0  0  0  0  0  0999 V2000
    5.8042   -2.4417    0.0000 C   0  0  0  0  0  0  0  0  0  0  0  0
    5.8042   -1.6167    0.0000 O   0  0  0  0  0  0  0  0  0  0  0  0
    5.0792   -1.2042    0.0000 C   0  0  0  0  0  0  0  0  0  0  0  0
    5.0792   -2.8542    0.0000 C   0  0  0  0  0  0  0  0  0  0  0  0
    6.5167   -2.8542    0.0000 C   0  0  0  0  0  0  0  0  0  0  0  0
    4.3667   -2.4417    0.0000 C   0  0  0  0  0  0  0  0  0  0  0  0
    4.3667   -1.6167    0.0000 C   0  0  0  0  0  0  0  0  0  0  0  0
    5.0792   -3.6875    0.0000 C   0  0  0  0  0  0  0  0  0  0  0  0
    6.5167   -3.6875    0.0000 C   0  0  0  0  0  0  0  0  0  0  0  0
    5.0792   -0.3792    0.0000 O   0  0  0  0  0  0  0  0  0  0  0  0
    5.7917   -4.1000    0.0000 C   0  0  0  0  0  0  0  0  0  0  0  0
    7.2292   -2.4417    0.0000 O   0  0  0  0  0  0  0  0  0  0  0  0
    7.2417   -4.1042    0.0000 O   0  0  0  0  0  0  0  0  0  0  0  0
    3.6542   -2.8542    0.0000 C   0  0  0  0  0  0  0  0  0  0  0  0
    3.6542   -1.2042    0.0000 C   0  0  0  0  0  0  0  0  0  0  0  0
    2.9417   -2.4417    0.0000 C   0  0  0  0  0  0  0  0  0  0  0  0
    2.9417   -1.6250    0.0000 C   0  0  0  0  0  0  0  0  0  0  0  0
  2  1  1  0
  3  2  1  0
  4  1  2  0
  5  1  1  0
  6  4  1  0
  7  6  1  0
  8  4  1  0
  9  5  2  0
 10  3  2  0
 11  9  1  0
 12  5  1  0
 13  9  1  0
 14  6  2  0
 15  7  2  0
 16 14  1  0
 17 16  2  0
 11  8  2  0
  7  3  1  0
 15 17  1  0
M  END

> <chembl_id>
CHEMBL6364

> <chembl_pref_name>
None

$$$$

     RDKit          2D

 17 19  0  0  0  0  0  0  0  0999 V2000
    5.4792   -3.0667    0.0000 C   0  0  0  0  0  0  0  0  0  0  0  0
    5.4792   -2.2417    0.0000 C   0  0  0  0  0  0  0  0  0  0  0  0
    6.1917   -1.8292    0.0000 C   0  0  0  0  0  0  0  0  0  0  0  0
    6.9042   -2.2417    0.0000 O   0  0  0  0  0  0  0  0  0  0  0  0
    6.1917   -3.4792    0.0000 C   0  0  0  0  0  0  0  0  0  0  0  0
    4.7667   -3.4792    0.0000 C   0  0  0  0  0  0  0  0  0  0  0  0
    6.9042   -3.0667    0.0000 C   0  0  0  0  0  0  0  0  0  0  0  0
    4.7667   -1.8292    0.0000 C   0  0  0  0  0  0  0  0  0  0  0  0
    4.0542   -3.0667    0.0000 C   0  0  0  0  0  0  0  0  0  0  0  0
    4.0542   -2.2417    0.0000 C   0  0  0  0  0  0  0  0  0  0  0  0
    6.1917   -1.0042    0.0000 O   0  0  0  0  0  0  0  0  0  0  0  0
    3.3292   -3.4792    0.0000 O   0  0  0  0  0  0  0  0  0  0  0  0
    3.3417   -1.8292    0.0000 O   0  0  0  0  0  0  0  0  0  0  0  0
    6.1917   -4.3042    0.0000 C   0  0  0  0  0  0  0  0  0  0  0  0
    7.6292   -3.4792    0.0000 C   0  0  0  0  0  0  0  0  0  0  0  0
    6.9042   -4.7167    0.0000 C   0  0  0  0  0  0  0  0  0  0  0  0
    7.6292   -4.3042    0.0000 C   0  0  0  0  0  0  0  0  0  0  0  0
  2  1  1  0
  3  2  1  0
  4  7  1  0
  5  1  1  0
  6  1  2  0
  7  5  2  0
  8  2  2  0
  9  6  1  0
 10  9  2  0
 11  3  2  0
 12  9  1  0
 13 10  1  0
 14  5  1  0
 15  7  1  0
 16 14  2  0
 17 16  1  0
  8 10  1  0
  3  4  1  0
 17 15  2  0
M  END

> <chembl_id>
CHEMBL6365

> <chembl_pref_name>
None

$$$$

     RDKit          2D

 19 21  0  0  0  0  0  0  0  0999 V2000
    5.1000   -2.6500    0.0000 C   0  0  0  0  0  0  0  0  0  0  0  0
    5.1000   -1.8250    0.0000 C   0  0  0  0  0  0  0  0  0  0  0  0
    5.8125   -1.4125    0.0000 C   0  0  0  0  0  0  0  0  0  0  0  0
    5.8125   -3.0625    0.0000 C   0  0  0  0  0  0  0  0  0  0  0  0
    6.5292   -2.6500    0.0000 C   0  0  0  0  0  0  0  0  0  0  0  0
    6.5292   -1.8250    0.0000 O   0  0  0  0  0  0  0  0  0  0  0  0
    4.3875   -3.0625    0.0000 C   0  0  0  0  0  0  0  0  0  0  0  0
    4.3875   -1.4125    0.0000 C   0  0  0  0  0  0  0  0  0  0  0  0
    5.8125   -3.8875    0.0000 C   0  0  0  0  0  0  0  0  0  0  0  0
    7.2500   -3.0625    0.0000 C   0  0  0  0  0  0  0  0  0  0  0  0
    3.6750   -2.6500    0.0000 C   0  0  0  0  0  0  0  0  0  0  0  0
    3.6750   -1.8250    0.0000 C   0  0  0  0  0  0  0  0  0  0  0  0
    6.5250   -4.3000    0.0000 C   0  0  0  0  0  0  0  0  0  0  0  0
    7.2500   -3.8875    0.0000 C   0  0  0  0  0  0  0  0  0  0  0  0
    5.8125   -0.5875    0.0000 O   0  0  0  0  0  0  0  0  0  0  0  0
    2.9500   -1.4125    0.0000 O   0  0  0  0  0  0  0  0  0  0  0  0
    2.9500   -3.0667    0.0000 O   0  0  0  0  0  0  0  0  0  0  0  0
    6.5167   -5.1167    0.0000 O   0  0  0  0  0  0  0  0  0  0  0  0
    7.9750   -4.3042    0.0000 O   0  0  0  0  0  0  0  0  0  0  0  0
  2  1  1  0
  3  2  1  0
  4  1  1  0
  5  4  2  0
  6  5  1  0
  7  1  2  0
  8  2  2  0
  9  4  1  0
 10  5  1  0
 11  7  1  0
 12 11  2  0
 13  9  2  0
 14 13  1  0
 15  3  2  0
 16 12  1  0
 17 11  1  0
 18 13  1  0
 19 14  1  0
 12  8  1  0
  6  3  1  0
 10 14  2  0
M  END

> <chembl_id>
CHEMBL266458

> <chembl_pref_name>
None

$$$$

     RDKit          2D

 21 21  0  0  0  0  0  0  0  0999 V2000
    9.8250   -6.3625    0.0000 Na  0  0  0  0  0 15  0  0  0  0  0  0
    6.9792   -4.7500    0.0000 C   0  0  0  0  0  0  0  0  0  0  0  0
    8.5167   -4.4917    0.0000 C   0  0  0  0  0  0  0  0  0  0  0  0
    7.8500   -5.1875    0.0000 N   0  0  0  0  0  0  0  0  0  0  0  0
    7.1250   -3.7917    0.0000 C   0  0  0  0  0  0  0  0  0  0  0  0
    8.0625   -3.6292    0.0000 C   0  0  0  0  0  0  0  0  0  0  0  0
    6.1250   -5.1917    0.0000 C   0  0  0  0  0  0  0  0  0  0  0  0
    9.4500   -4.7417    0.0000 C   0  0  0  0  0  0  0  0  0  0  0  0
   10.2667   -4.2542    0.0000 C   0  0  0  0  0  0  0  0  0  0  0  0
    5.3625   -4.7542    0.0000 C   0  0  0  0  0  0  0  0  0  0  0  0
    6.1167   -6.0792    0.0000 O   0  0  0  0  0  0  0  0  0  0  0  0
   11.1917   -4.5042    0.0000 O   0  0  0  0  0  0  0  0  0  0  0  0
   10.2667   -3.3042    0.0000 O   0  0  0  0  0  0  0  0  0  0  0  0
    5.3625   -3.8667    0.0000 C   0  0  0  0  0  0  0  0  0  0  0  0
    4.5917   -5.1917    0.0000 C   0  0  0  0  0  0  0  0  0  0  0  0
    7.8417   -6.1500    0.0000 C   0  0  0  0  0  0  0  0  0  0  0  0
    3.8292   -3.8667    0.0000 C   0  0  0  0  0  0  0  0  0  0  0  0
    6.4417   -3.1167    0.0000 C   0  0  0  0  0  0  0  0  0  0  0  0
    4.5917   -3.4250    0.0000 C   0  0  0  0  0  0  0  0  0  0  0  0
    3.8292   -4.7542    0.0000 C   0  0  0  0  0  0  0  0  0  0  0  0
    3.2042   -3.2417    0.0000 Cl  0  0  0  0  0  0  0  0  0  0  0  0
  3  4  1  0
  4  2  1  0
  5  2  2  0
  6  5  1  0
  7  2  1  0
  8  3  1  0
  9  8  1  0
 10  7  1  0
 11  7  2  0
 12  9  1  0
 13  9  2  0
 14 10  1  0
 15 10  2  0
 16  4  1  0
 17 20  2  0
 18  5  1  0
 19 14  2  0
 20 15  1  0
 21 17  1  0
  3  6  2  0
 19 17  1  0
M  CHG  2   1   1  12  -1
M  END

> <chembl_id>
CHEMBL266459

> <chembl_pref_name>
ZOMEPIRAC SODIUM

$$$$

     RDKit          2D

 31 34  0  0  0  0  0  0  0  0999 V2000
    1.9667   -1.4250    0.0000 C   0  0  0  0  0  0  0  0  0  0  0  0
    1.9750   -2.2542    0.0000 N   0  0  0  0  0  0  0  0  0  0  0  0
    0.5417   -2.2542    0.0000 C   0  0  0  0  0  0  0  0  0  0  0  0
    1.2625   -2.6667    0.0000 C   0  0  0  0  0  0  0  0  0  0  0  0
    1.2542   -1.0167    0.0000 N   0  0  0  0  0  0  0  0  0  0  0  0
    0.5417   -1.4292    0.0000 C   0  0  0  0  0  0  0  0  0  0  0  0
    2.6792   -1.0125    0.0000 N   0  0  0  0  0  0  0  0  0  0  0  0
    4.1042   -0.1792    0.0000 N   0  0  0  0  0  0  0  0  0  0  0  0
   -0.1708   -2.6750    0.0000 C   0  0  0  0  0  0  0  0  0  0  0  0
   -0.1708   -1.0167    0.0000 C   0  0  0  0  0  0  0  0  0  0  0  0
    4.8250    0.2333    0.0000 C   0  0  0  0  0  0  0  0  0  0  0  0
   -0.8833   -2.2625    0.0000 C   0  0  0  0  0  0  0  0  0  0  0  0
   -0.8833   -1.4375    0.0000 C   0  0  0  0  0  0  0  0  0  0  0  0
    2.6792   -0.1875    0.0000 C   0  0  0  0  0  0  0  0  0  0  0  0
    3.4000   -1.4167    0.0000 C   0  0  0  0  0  0  0  0  0  0  0  0
    4.1125   -1.0042    0.0000 C   0  0  0  0  0  0  0  0  0  0  0  0
    3.3917    0.2333    0.0000 C   0  0  0  0  0  0  0  0  0  0  0  0
    5.5375   -0.1792    0.0000 C   0  0  0  0  0  0  0  0  0  0  0  0
    4.8167    1.0583    0.0000 O   0  0  0  0  0  0  0  0  0  0  0  0
    1.2542   -3.4917    0.0000 N   0  0  0  0  0  0  0  0  0  0  0  0
    5.5417   -1.0042    0.0000 O   0  0  0  0  0  0  0  0  0  0  0  0
   -1.6000   -2.6750    0.0000 O   0  0  0  0  0  0  0  0  0  0  0  0
   -1.5958   -1.0250    0.0000 O   0  0  0  0  0  0  0  0  0  0  0  0
    6.2542   -1.4167    0.0000 C   0  0  0  0  0  0  0  0  0  0  0  0
   -2.3125   -2.2625    0.0000 C   0  0  0  0  0  0  0  0  0  0  0  0
   -2.3125   -1.4375    0.0000 C   0  0  0  0  0  0  0  0  0  0  0  0
    6.2542   -2.2417    0.0000 C   0  0  0  0  0  0  0  0  0  0  0  0
    6.9667   -1.0000    0.0000 C   0  0  0  0  0  0  0  0  0  0  0  0
    7.6792   -1.4042    0.0000 C   0  0  0  0  0  0  0  0  0  0  0  0
    6.9667   -2.6500    0.0000 C   0  0  0  0  0  0  0  0  0  0  0  0
    7.6792   -2.2375    0.0000 C   0  0  0  0  0  0  0  0  0  0  0  0
  2  1  1  0
  3  6  1  0
  4  2  2  0
  5  1  2  0
  6  5  1  0
  7  1  1  0
  8 16  1  0
  9  3  2  0
 10  6  2  0
 11  8  1  0
 12 13  2  0
 13 10  1  0
 14  7  1  0
 15  7  1  0
 16 15  1  0
 17 14  1  0
 18 11  1  0
 19 11  2  0
 20  4  1  0
 21 18  1  0
 22 12  1  0
 23 13  1  0
 24 21  1  0
 25 22  1  0
 26 23  1  0
 27 24  2  0
 28 24  1  0
 29 28  2  0
 30 27  1  0
 31 29  1  0
  3  4  1  0
 17  8  1  0
  9 12  1  0
 30 31  2  0
M  END

> <chembl_id>
CHEMBL6366

> <chembl_pref_name>
None

$$$$

     RDKit          2D

 79 89  0  0  1  0  0  0  0  0999 V2000
   19.6250   -1.8042    0.0000 C   0  0  0  0  0  0  0  0  0  0  0  0
    5.7542   -6.0667    0.0000 C   0  0  0  0  0  0  0  0  0  0  0  0
   18.6042   -2.1042    0.0000 O   0  0  0  0  0  0  0  0  0  0  0  0
   13.5125   -5.0750    0.0000 C   0  0  0  0  0  0  0  0  0  0  0  0
    4.8500   -5.5375    0.0000 O   0  0  0  0  0  0  0  0  0  0  0  0
   20.3417   -2.5500    0.0000 C   0  0  0  0  0  0  0  0  0  0  0  0
   10.9167   -6.8042    0.0000 O   0  0  0  0  0  0  0  0  0  0  0  0
   12.5875   -4.5625    0.0000 O   0  0  0  0  0  0  0  0  0  0  0  0
    3.9500   -6.0667    0.0000 C   0  0  0  0  0  0  0  0  0  0  0  0
    3.9500   -7.1292    0.0000 C   0  0  0  0  0  0  0  0  0  0  0  0
   11.7042   -5.1167    0.0000 C   0  0  0  0  0  0  0  0  0  0  0  0
   14.4167   -6.6000    0.0000 O   0  0  0  0  0  0  0  0  0  0  0  0
   11.7042   -6.1375    0.0000 C   0  0  0  0  0  0  0  0  0  0  0  0
    5.7542   -7.1125    0.0000 C   0  0  0  0  0  0  0  0  0  0  0  0
    3.0667   -5.5375    0.0000 C   0  0  0  0  0  0  0  0  0  0  0  0
   13.5375   -6.0667    0.0000 C   0  0  0  0  0  0  0  0  0  0  0  0
   15.3417   -6.0667    0.0000 C   0  0  0  0  0  0  0  0  0  0  0  0
    6.6542   -7.6167    0.0000 O   0  0  0  0  0  0  0  0  0  0  0  0
   16.0542   -4.3792    0.0000 O   0  0  0  0  0  0  0  0  0  0  0  0
    8.3917   -5.4417    0.0000 O   0  0  0  0  0  0  0  0  0  0  0  0
    9.9000   -6.5792    0.0000 C   0  0  0  0  0  0  0  0  0  0  0  0
   18.3542   -3.1042    0.0000 C   0  0  0  0  0  0  0  0  0  0  0  0
   15.3167   -5.0917    0.0000 C   0  0  0  0  0  0  0  0  0  0  0  0
   18.7917   -4.8417    0.0000 O   0  0  0  0  0  0  0  0  0  0  0  0
    3.0667   -7.6417    0.0000 O   0  0  0  0  0  0  0  0  0  0  0  0
   19.0667   -3.8417    0.0000 C   0  0  0  0  0  0  0  0  0  0  0  0
    7.5792   -6.0917    0.0000 C   0  0  0  0  0  0  0  0  0  0  0  0
    2.1875   -7.1125    0.0000 C   0  0  0  0  0  0  0  0  0  0  0  0
   21.3625   -2.2917    0.0000 O   0  0  0  0  0  0  0  0  0  0  0  0
   17.0792   -4.3792    0.0000 C   0  0  0  0  0  0  0  0  0  0  0  0
    7.5792   -7.0875    0.0000 C   0  0  0  0  0  0  0  0  0  0  0  0
   14.4167   -4.5625    0.0000 C   0  0  0  0  0  0  0  0  0  0  0  0
    6.6542   -5.5542    0.0000 C   0  0  0  0  0  0  0  0  0  0  0  0
    2.1875   -6.0667    0.0000 C   0  0  0  0  0  0  0  0  0  0  0  0
    9.4125   -5.6750    0.0000 C   0  0  0  0  0  0  0  0  0  0  0  0
   19.8792   -0.8125    0.0000 C   0  0  0  0  0  0  0  0  0  0  0  0
   20.0667   -3.5667    0.0000 C   0  0  0  0  0  0  0  0  0  0  0  0
    4.8500   -7.6417    0.0000 C   0  0  0  0  0  0  0  0  0  0  0  0
   12.6292   -6.6417    0.0000 C   0  0  0  0  0  0  0  0  0  0  0  0
   17.3292   -3.4042    0.0000 C   0  0  0  0  0  0  0  0  0  0  0  0
   17.7917   -5.0917    0.0000 C   0  0  0  0  0  0  0  0  0  0  0  0
    9.4125   -7.5042    0.0000 C   0  0  0  0  0  0  0  0  0  0  0  0
   21.6625   -1.3000    0.0000 C   0  0  0  0  0  0  0  0  0  0  0  0
   20.8750   -0.5125    0.0000 C   0  0  0  0  0  0  0  0  0  0  0  0
    8.3917   -7.7375    0.0000 C   0  0  0  0  0  0  0  0  0  0  0  0
   10.8667   -4.4417    0.0000 C   0  0  0  0  0  0  0  0  0  0  0  0
   23.3792   -1.8292    0.0000 C   0  0  0  0  0  0  0  0  0  0  0  0
   17.8167   -6.0667    0.0000 C   0  0  0  0  0  0  0  0  0  0  0  0
   17.1000   -6.8042    0.0000 C   0  0  0  0  0  0  0  0  0  0  0  0
    1.2375   -7.5917    0.0000 O   0  0  0  0  0  0  0  0  0  0  0  0
    9.8542   -4.7042    0.0000 C   0  0  0  0  0  0  0  0  0  0  0  0
   22.6792   -1.0917    0.0000 C   0  0  0  0  0  0  0  0  0  0  0  0
   23.7667   -3.5667    0.0000 O   0  0  0  0  0  0  0  0  0  0  0  0
   24.3917   -1.6000    0.0000 C   0  0  0  0  0  0  0  0  0  0  0  0
   23.0542   -2.8250    0.0000 C   0  0  0  0  0  0  0  0  0  0  0  0
   16.0792   -6.8042    0.0000 C   0  0  0  0  0  0  0  0  0  0  0  0
   18.8375   -1.1125    0.0000 C   0  0  0  0  0  0  0  0  0  0  0  0
   19.1417   -0.0917    0.0000 O   0  0  0  0  0  0  0  0  0  0  0  0
    5.7542   -5.0250    0.0000 C   0  0  0  0  0  0  0  0  0  0  0  0
   13.5125   -4.1000    0.0000 C   0  0  0  0  0  0  0  0  0  0  0  0
    3.0667   -4.4417    0.0000 C   0  0  0  0  0  0  0  0  0  0  0  0
   11.7042   -4.0792    0.0000 C   0  0  0  0  0  0  0  0  0  0  0  0
   15.3167   -7.0875    0.0000 C   0  0  0  0  0  0  0  0  0  0  0  0
   10.1042   -8.3625    0.0000 C   0  0  0  0  0  0  0  0  0  0  0  0
   18.5125   -5.8792    0.0000 H   0  0  0  0  0  0  0  0  0  0  0  0
   17.5875   -2.4292    0.0000 H   0  0  0  0  0  0  0  0  0  0  0  0
    3.9500   -8.1750    0.0000 H   0  0  0  0  0  0  0  0  0  0  0  0
   11.7042   -7.1792    0.0000 H   0  0  0  0  0  0  0  0  0  0  0  0
    7.5792   -5.0500    0.0000 H   0  0  0  0  0  0  0  0  0  0  0  0
   10.5167   -7.3667    0.0000 H   0  0  0  0  0  0  0  0  0  0  0  0
   13.5125   -7.1292    0.0000 H   0  0  0  0  0  0  0  0  0  0  0  0
    7.6042   -8.1292    0.0000 H   0  0  0  0  0  0  0  0  0  0  0  0
   19.7417   -4.4417    0.0000 H   0  0  0  0  0  0  0  0  0  0  0  0
    5.7542   -8.1542    0.0000 H   0  0  0  0  0  0  0  0  0  0  0  0
    8.8792   -4.8167    0.0000 H   0  0  0  0  0  0  0  0  0  0  0  0
   15.3167   -4.0792    0.0000 H   0  0  0  0  0  0  0  0  0  0  0  0
   16.4750   -3.5667    0.0000 H   0  0  0  0  0  0  0  0  0  0  0  0
   21.2000   -3.2167    0.0000 H   0  0  0  0  0  0  0  0  0  0  0  0
    3.9500   -5.1167    0.0000 H   0  0  0  0  0  0  0  0  0  0  0  0
  2 33  1  0
  3  1  1  0
  4 32  1  0
  5  2  1  0
  6  1  1  0
  7 13  1  0
  8  4  1  0
  9  5  1  0
 10 38  1  0
 11  8  1  0
 12 17  1  0
 13 39  1  0
 14 18  1  0
 15  9  1  0
 16  4  1  0
 17 23  1  0
 18 31  1  0
 19 30  1  0
 20 35  1  0
 21  7  1  0
 22  3  1  0
 23 19  1  0
 24 26  1  0
 25 10  1  0
 26 37  1  0
 27 20  1  0
 28 25  1  0
 29  6  1  0
 30 40  1  0
 31 45  1  0
 32 23  1  0
 33 27  1  0
 34 15  2  0
 35 51  1  0
 36  1  1  0
 37  6  1  0
 38 14  1  0
 39 16  1  0
 40 22  1  0
 41 24  1  0
 42 21  1  0
 43 44  1  0
 44 36  1  0
 45 42  1  0
 46 11  1  0
 47 52  1  0
 48 41  1  0
 49 48  2  0
 50 28  2  0
 51 46  1  0
 43 52  1  6
 53 55  2  0
 54 47  2  0
 55 47  1  0
 56 49  1  0
  1 57  1  6
 36 58  1  1
  2 59  1  6
  4 60  1  6
 61 15  1  0
 11 62  1  6
 17 63  1  1
 42 64  1  6
 41 65  1  1
 22 66  1  6
 10 67  1  1
 13 68  1  1
 27 69  1  6
 21 70  1  1
 16 71  1  1
 31 72  1  1
 26 73  1  1
 14 74  1  1
 35 75  1  6
 23 76  1  6
 30 77  1  6
  6 78  1  1
  9 79  1  6
 29 43  1  0
 22 26  1  0
 30 41  1  0
 17 56  1  0
 12 16  1  0
 11 13  1  0
 21 35  1  0
 27 31  1  0
  2 14  1  0
  9 10  1  0
 28 34  1  0
M  END

> <chembl_id>
CHEMBL216458

> <chembl_pref_name>
ALPHA-BUNGAROTOXIN

$$$$

     RDKit          2D

 12 13  0  0  1  0  0  0  0  0999 V2000
    4.1955    0.2934    0.0000 C   0  0  0  0  0  0  0  0  0  0  0  0
    3.9511   -0.8815    0.0000 N   0  0  0  0  0  0  0  0  0  0  0  0
    4.9531   -1.9978    0.0000 C   0  0  0  0  0  0  0  0  0  0  0  0
    4.2010   -3.2956    0.0000 C   0  0  0  0  0  0  0  0  0  0  0  0
    2.7343   -2.9815    0.0000 C   0  0  0  0  0  0  0  0  0  0  0  0
    2.5987   -1.5004    0.0000 C   0  0  0  0  0  0  0  0  0  0  0  0
    1.2990   -0.7500    0.0000 C   0  0  0  0  0  0  0  0  0  0  0  0
    1.2990    0.7500    0.0000 C   0  0  0  0  0  0  0  0  0  0  0  0
    0.0000    1.5000    0.0000 C   0  0  0  0  0  0  0  0  0  0  0  0
   -1.2990    0.7500    0.0000 C   0  0  0  0  0  0  0  0  0  0  0  0
   -1.2990   -0.7500    0.0000 N   0  0  0  0  0  0  0  0  0  0  0  0
    0.0000   -1.5000    0.0000 C   0  0  0  0  0  0  0  0  0  0  0  0
  1  2  1  0
  2  3  1  0
  3  4  1  0
  4  5  1  0
  5  6  1  0
  6  2  1  0
  6  7  1  1
  7  8  2  0
  8  9  1  0
  9 10  2  0
 10 11  1  0
 11 12  2  0
 12  7  1  0
M  END

> <chembl_id>
CHEMBL3

> <chembl_pref_name>
NICOTINE

$$$$

     RDKit          2D

 11 12  0  0  1  0  0  0  0  0999 V2000
    4.2010   -3.2956    0.0000 C   0  0  0  0  0  0  0  0  0  0  0  0
    4.9531   -1.9978    0.0000 C   0  0  0  0  0  0  0  0  0  0  0  0
    3.9511   -0.8815    0.0000 N   0  0  0  0  0  0  0  0  0  0  0  0
    2.5987   -1.5004    0.0000 C   0  0  0  0  0  0  0  0  0  0  0  0
    2.7343   -2.9815    0.0000 C   0  0  0  0  0  0  0  0  0  0  0  0
    1.2990   -0.7500    0.0000 C   0  0  0  0  0  0  0  0  0  0  0  0
    1.2990    0.7500    0.0000 C   0  0  0  0  0  0  0  0  0  0  0  0
    0.0000    1.5000    0.0000 C   0  0  0  0  0  0  0  0  0  0  0  0
   -1.2990    0.7500    0.0000 C   0  0  0  0  0  0  0  0  0  0  0  0
   -1.2990   -0.7500    0.0000 N   0  0  0  0  0  0  0  0  0  0  0  0
    0.0000   -1.5000    0.0000 C   0  0  0  0  0  0  0  0  0  0  0  0
  1  2  1  0
  2  3  1  0
  3  4  1  0
  4  5  1  0
  5  1  1  0
  4  6  1  1
  6  7  2  0
  7  8  1  0
  8  9  2  0
  9 10  1  0
 10 11  2  0
 11  6  1  0
M  END

> <chembl_id>
CHEMBL6200

> <chembl_pref_name>
None

$$$$

     RDKit          2D

 44 46  0  0  0  0  0  0  0  0999 V2000
    5.9917  -19.0417    0.0000 N   0  0  0  0  0  0  0  0  0  0  0  0
    6.7042  -19.4625    0.0000 C   0  0  0  0  0  0  0  0  0  0  0  0
    4.0292  -19.6542    0.0000 N   0  0  0  0  0  0  0  0  0  0  0  0
    3.3125  -19.2417    0.0000 C   0  0  0  0  0  0  0  0  0  0  0  0
    7.4250  -19.0417    0.0000 C   0  0  0  0  0  0  0  0  0  0  0  0
    2.5917  -19.6625    0.0000 C   0  0  0  0  0  0  0  0  0  0  0  0
    5.5792  -19.7625    0.0000 C   0  0  0  0  0  0  0  0  0  0  0  0
    1.1542  -20.4917    0.0000 C   0  0  0  0  0  0  0  0  0  0  0  0
    8.8542  -18.2042    0.0000 C   0  0  0  0  0  0  0  0  0  0  0  0
    4.6667  -19.4292    0.0000 C   0  0  0  0  0  0  0  0  0  0  0  0
    5.6250  -21.9417    0.0000 C   0  0  0  0  0  0  0  0  0  0  0  0
    8.8542  -19.0292    0.0000 C   0  0  0  0  0  0  0  0  0  0  0  0
    1.1542  -19.6667    0.0000 C   0  0  0  0  0  0  0  0  0  0  0  0
    8.1292  -17.7917    0.0000 C   0  0  0  0  0  0  0  0  0  0  0  0
    1.8750  -20.9125    0.0000 C   0  0  0  0  0  0  0  0  0  0  0  0
    5.3125  -19.2667    0.0000 C   0  0  0  0  0  0  0  0  0  0  0  0
    7.4167  -18.2167    0.0000 C   0  0  0  0  0  0  0  0  0  0  0  0
    8.1417  -19.4542    0.0000 C   0  0  0  0  0  0  0  0  0  0  0  0
    1.8750  -19.2500    0.0000 C   0  0  0  0  0  0  0  0  0  0  0  0
    2.5917  -20.4917    0.0000 C   0  0  0  0  0  0  0  0  0  0  0  0
    5.1000  -22.5792    0.0000 N   0  0  0  0  0  0  0  0  0  0  0  0
    4.4417  -18.9292    0.0000 C   0  0  0  0  0  0  0  0  0  0  0  0
    6.7042  -20.2875    0.0000 O   0  0  0  0  0  0  0  0  0  0  0  0
    3.3042  -18.4167    0.0000 O   0  0  0  0  0  0  0  0  0  0  0  0
    5.8667  -20.5375    0.0000 C   0  0  0  0  0  0  0  0  0  0  0  0
    5.3417  -21.1667    0.0000 O   0  0  0  0  0  0  0  0  0  0  0  0
    6.4375  -22.0875    0.0000 O   0  0  0  0  0  0  0  0  0  0  0  0
    5.3792  -23.3542    0.0000 C   0  0  0  0  0  0  0  0  0  0  0  0
    0.4375  -20.9125    0.0000 O   0  0  0  0  0  0  0  0  0  0  0  0
    9.5667  -17.7875    0.0000 O   0  0  0  0  0  0  0  0  0  0  0  0
    1.8750  -21.7417    0.0000 O   0  0  0  0  0  0  0  0  0  0  0  0
    8.1167  -16.9667    0.0000 O   0  0  0  0  0  0  0  0  0  0  0  0
    0.4417  -19.2542    0.0000 O   0  0  0  0  0  0  0  0  0  0  0  0
    9.5792  -19.4500    0.0000 O   0  0  0  0  0  0  0  0  0  0  0  0
    4.8542  -23.9875    0.0000 C   0  0  0  0  0  0  0  0  0  0  0  0
    6.0917  -22.9375    0.0000 C   0  0  0  0  0  0  0  0  0  0  0  0
    6.0917  -23.7667    0.0000 C   0  0  0  0  0  0  0  0  0  0  0  0
   -0.2750  -20.4917    0.0000 C   0  0  0  0  0  0  0  0  0  0  0  0
   10.2875  -18.1917    0.0000 C   0  0  0  0  0  0  0  0  0  0  0  0
    9.5792  -20.2792    0.0000 C   0  0  0  0  0  0  0  0  0  0  0  0
    1.1542  -22.1542    0.0000 C   0  0  0  0  0  0  0  0  0  0  0  0
    0.4417  -18.4250    0.0000 C   0  0  0  0  0  0  0  0  0  0  0  0
    8.8375  -16.5417    0.0000 C   0  0  0  0  0  0  0  0  0  0  0  0
    5.1417  -24.7625    0.0000 C   0  0  0  0  0  0  0  0  0  0  0  0
  2  1  1  0
  3 22  1  0
  4  3  1  0
  5  2  1  0
  6  4  1  0
  7  1  1  0
  8 15  1  0
  9 12  2  0
 10  7  1  0
 11 26  1  0
 12 18  1  0
 13 19  1  0
 14 17  2  0
 15 20  2  0
 16  1  1  0
 17  5  1  0
 18  5  2  0
 19  6  2  0
 20  6  1  0
 21 11  1  0
 22 16  1  0
 23  2  2  0
 24  4  2  0
 25  7  1  0
 26 25  1  0
 27 11  2  0
 28 21  1  0
 29  8  1  0
 30  9  1  0
 31 15  1  0
 32 14  1  0
 33 13  1  0
 34 12  1  0
 35 28  1  0
 36 28  1  0
 37 28  1  0
 38 29  1  0
 39 30  1  0
 40 34  1  0
 41 31  1  0
 42 33  1  0
 43 32  1  0
 44 35  1  0
  3 10  1  0
  9 14  1  0
 13  8  2  0
M  END

> <chembl_id>
CHEMBL266886

> <chembl_pref_name>
None

$$$$

     RDKit          2D

 45 47  0  0  0  0  0  0  0  0999 V2000
    5.9917  -19.0417    0.0000 N   0  0  0  0  0  0  0  0  0  0  0  0
    6.7042  -19.4625    0.0000 C   0  0  0  0  0  0  0  0  0  0  0  0
    4.0292  -19.6542    0.0000 N   0  0  0  0  0  0  0  0  0  0  0  0
    3.3125  -19.2417    0.0000 C   0  0  0  0  0  0  0  0  0  0  0  0
    7.4250  -19.0417    0.0000 C   0  0  0  0  0  0  0  0  0  0  0  0
    2.5917  -19.6625    0.0000 C   0  0  0  0  0  0  0  0  0  0  0  0
    5.5792  -19.7625    0.0000 C   0  0  0  0  0  0  0  0  0  0  0  0
    1.1542  -20.4917    0.0000 C   0  0  0  0  0  0  0  0  0  0  0  0
    8.8542  -18.2042    0.0000 C   0  0  0  0  0  0  0  0  0  0  0  0
    4.6667  -19.4292    0.0000 C   0  0  0  0  0  0  0  0  0  0  0  0
    1.8750  -20.9125    0.0000 C   0  0  0  0  0  0  0  0  0  0  0  0
    8.8542  -19.0292    0.0000 C   0  0  0  0  0  0  0  0  0  0  0  0
    1.1542  -19.6667    0.0000 C   0  0  0  0  0  0  0  0  0  0  0  0
    8.1292  -17.7917    0.0000 C   0  0  0  0  0  0  0  0  0  0  0  0
    5.6250  -21.9417    0.0000 C   0  0  0  0  0  0  0  0  0  0  0  0
    5.3125  -19.2667    0.0000 C   0  0  0  0  0  0  0  0  0  0  0  0
    7.4167  -18.2167    0.0000 C   0  0  0  0  0  0  0  0  0  0  0  0
    8.1417  -19.4542    0.0000 C   0  0  0  0  0  0  0  0  0  0  0  0
    1.8750  -19.2500    0.0000 C   0  0  0  0  0  0  0  0  0  0  0  0
    2.5917  -20.4917    0.0000 C   0  0  0  0  0  0  0  0  0  0  0  0
    4.4417  -18.9292    0.0000 C   0  0  0  0  0  0  0  0  0  0  0  0
    5.1000  -22.5792    0.0000 N   0  0  0  0  0  0  0  0  0  0  0  0
    6.7042  -20.2875    0.0000 O   0  0  0  0  0  0  0  0  0  0  0  0
    3.3042  -18.4167    0.0000 O   0  0  0  0  0  0  0  0  0  0  0  0
    5.8667  -20.5375    0.0000 C   0  0  0  0  0  0  0  0  0  0  0  0
    5.3417  -21.1667    0.0000 O   0  0  0  0  0  0  0  0  0  0  0  0
    6.4375  -22.0875    0.0000 O   0  0  0  0  0  0  0  0  0  0  0  0
    5.3792  -23.3542    0.0000 C   0  0  0  0  0  0  0  0  0  0  0  0
    0.4375  -20.9125    0.0000 O   0  0  0  0  0  0  0  0  0  0  0  0
    9.5667  -17.7875    0.0000 O   0  0  0  0  0  0  0  0  0  0  0  0
    1.8750  -21.7417    0.0000 O   0  0  0  0  0  0  0  0  0  0  0  0
    8.1167  -16.9667    0.0000 O   0  0  0  0  0  0  0  0  0  0  0  0
    0.4417  -19.2542    0.0000 O   0  0  0  0  0  0  0  0  0  0  0  0
    9.5792  -19.4500    0.0000 O   0  0  0  0  0  0  0  0  0  0  0  0
    4.8542  -23.9875    0.0000 C   0  0  0  0  0  0  0  0  0  0  0  0
    5.1417  -24.7625    0.0000 C   0  0  0  0  0  0  0  0  0  0  0  0
    6.1917  -23.4917    0.0000 C   0  0  0  0  0  0  0  0  0  0  0  0
   -0.2750  -20.4917    0.0000 C   0  0  0  0  0  0  0  0  0  0  0  0
   10.2875  -18.1917    0.0000 C   0  0  0  0  0  0  0  0  0  0  0  0
    9.5792  -20.2792    0.0000 C   0  0  0  0  0  0  0  0  0  0  0  0
    1.1542  -22.1542    0.0000 C   0  0  0  0  0  0  0  0  0  0  0  0
    0.4417  -18.4250    0.0000 C   0  0  0  0  0  0  0  0  0  0  0  0
    8.8375  -16.5417    0.0000 C   0  0  0  0  0  0  0  0  0  0  0  0
    4.6167  -25.3917    0.0000 C   0  0  0  0  0  0  0  0  0  0  0  0
    5.9542  -24.9042    0.0000 C   0  0  0  0  0  0  0  0  0  0  0  0
  2  1  1  0
  3 21  1  0
  4  3  1  0
  5  2  1  0
  6  4  1  0
  7  1  1  0
  8 11  1  0
  9 12  2  0
 10  7  1  0
 11 20  2  0
 12 18  1  0
 13 19  1  0
 14 17  2  0
 15 26  1  0
 16  1  1  0
 17  5  1  0
 18  5  2  0
 19  6  2  0
 20  6  1  0
 21 16  1  0
 22 15  1  0
 23  2  2  0
 24  4  2  0
 25  7  1  0
 26 25  1  0
 27 15  2  0
 28 22  1  0
 29  8  1  0
 30  9  1  0
 31 11  1  0
 32 14  1  0
 33 13  1  0
 34 12  1  0
 35 28  1  0
 36 35  1  0
 37 28  1  0
 38 29  1  0
 39 30  1  0
 40 34  1  0
 41 31  1  0
 42 33  1  0
 43 32  1  0
 44 36  1  0
 45 36  1  0
  3 10  1  0
 14  9  1  0
 13  8  2  0
M  END

> <chembl_id>
CHEMBL269132

> <chembl_pref_name>
None

$$$$

     RDKit          2D

 44 46  0  0  0  0  0  0  0  0999 V2000
    5.9917  -19.0417    0.0000 N   0  0  0  0  0  0  0  0  0  0  0  0
    6.7042  -19.4625    0.0000 C   0  0  0  0  0  0  0  0  0  0  0  0
    4.0292  -19.6542    0.0000 N   0  0  0  0  0  0  0  0  0  0  0  0
    3.3125  -19.2417    0.0000 C   0  0  0  0  0  0  0  0  0  0  0  0
    7.4250  -19.0417    0.0000 C   0  0  0  0  0  0  0  0  0  0  0  0
    2.5917  -19.6625    0.0000 C   0  0  0  0  0  0  0  0  0  0  0  0
    5.5792  -19.7625    0.0000 C   0  0  0  0  0  0  0  0  0  0  0  0
    1.1542  -20.4917    0.0000 C   0  0  0  0  0  0  0  0  0  0  0  0
    8.8542  -18.2042    0.0000 C   0  0  0  0  0  0  0  0  0  0  0  0
    4.6667  -19.4292    0.0000 C   0  0  0  0  0  0  0  0  0  0  0  0
    1.8750  -20.9125    0.0000 C   0  0  0  0  0  0  0  0  0  0  0  0
    8.8542  -19.0292    0.0000 C   0  0  0  0  0  0  0  0  0  0  0  0
    1.1542  -19.6667    0.0000 C   0  0  0  0  0  0  0  0  0  0  0  0
    8.1292  -17.7917    0.0000 C   0  0  0  0  0  0  0  0  0  0  0  0
    5.6250  -21.9417    0.0000 C   0  0  0  0  0  0  0  0  0  0  0  0
    5.3125  -19.2667    0.0000 C   0  0  0  0  0  0  0  0  0  0  0  0
    7.4167  -18.2167    0.0000 C   0  0  0  0  0  0  0  0  0  0  0  0
    8.1417  -19.4542    0.0000 C   0  0  0  0  0  0  0  0  0  0  0  0
    1.8750  -19.2500    0.0000 C   0  0  0  0  0  0  0  0  0  0  0  0
    2.5917  -20.4917    0.0000 C   0  0  0  0  0  0  0  0  0  0  0  0
    4.4417  -18.9292    0.0000 C   0  0  0  0  0  0  0  0  0  0  0  0
    5.1000  -22.5792    0.0000 N   0  0  0  0  0  0  0  0  0  0  0  0
    6.7042  -20.2875    0.0000 O   0  0  0  0  0  0  0  0  0  0  0  0
    3.3042  -18.4167    0.0000 O   0  0  0  0  0  0  0  0  0  0  0  0
    5.8667  -20.5375    0.0000 C   0  0  0  0  0  0  0  0  0  0  0  0
    5.3417  -21.1667    0.0000 O   0  0  0  0  0  0  0  0  0  0  0  0
    6.4375  -22.0875    0.0000 O   0  0  0  0  0  0  0  0  0  0  0  0
    9.5667  -17.7875    0.0000 O   0  0  0  0  0  0  0  0  0  0  0  0
    0.4375  -20.9125    0.0000 O   0  0  0  0  0  0  0  0  0  0  0  0
    9.5792  -19.4500    0.0000 O   0  0  0  0  0  0  0  0  0  0  0  0
    1.8750  -21.7417    0.0000 O   0  0  0  0  0  0  0  0  0  0  0  0
    8.1167  -16.9667    0.0000 O   0  0  0  0  0  0  0  0  0  0  0  0
    0.4417  -19.2542    0.0000 O   0  0  0  0  0  0  0  0  0  0  0  0
    5.3792  -23.3542    0.0000 C   0  0  0  0  0  0  0  0  0  0  0  0
   10.2875  -18.1917    0.0000 C   0  0  0  0  0  0  0  0  0  0  0  0
   -0.2750  -20.4917    0.0000 C   0  0  0  0  0  0  0  0  0  0  0  0
    1.1542  -22.1542    0.0000 C   0  0  0  0  0  0  0  0  0  0  0  0
    0.4417  -18.4250    0.0000 C   0  0  0  0  0  0  0  0  0  0  0  0
    8.8375  -16.5417    0.0000 C   0  0  0  0  0  0  0  0  0  0  0  0
    9.5792  -20.2792    0.0000 C   0  0  0  0  0  0  0  0  0  0  0  0
    4.8542  -23.9875    0.0000 C   0  0  0  0  0  0  0  0  0  0  0  0
    6.1917  -23.4917    0.0000 C   0  0  0  0  0  0  0  0  0  0  0  0
    5.1417  -24.7625    0.0000 C   0  0  0  0  0  0  0  0  0  0  0  0
    4.6167  -25.3917    0.0000 C   0  0  0  0  0  0  0  0  0  0  0  0
  2  1  1  0
  3 21  1  0
  4  3  1  0
  5  2  1  0
  6  4  1  0
  7  1  1  0
  8 11  1  0
  9 12  2  0
 10  7  1  0
 11 20  2  0
 12 18  1  0
 13 19  1  0
 14 17  2  0
 15 26  1  0
 16  1  1  0
 17  5  1  0
 18  5  2  0
 19  6  2  0
 20  6  1  0
 21 16  1  0
 22 15  1  0
 23  2  2  0
 24  4  2  0
 25  7  1  0
 26 25  1  0
 27 15  2  0
 28  9  1  0
 29  8  1  0
 30 12  1  0
 31 11  1  0
 32 14  1  0
 33 13  1  0
 34 22  1  0
 35 28  1  0
 36 29  1  0
 37 31  1  0
 38 33  1  0
 39 32  1  0
 40 30  1  0
 41 34  1  0
 42 34  1  0
 43 41  1  0
 44 43  1  0
  3 10  1  0
  9 14  1  0
 13  8  2  0
M  END

> <chembl_id>
CHEMBL269133

> <chembl_pref_name>
None

$$$$

     RDKit          2D

 21 23  0  0  0  0  0  0  0  0999 V2000
   15.8669  -10.7246    0.0000 N   0  0  0  0  0  0  0  0  0  0  0  0
   15.8657  -11.5516    0.0000 C   0  0  0  0  0  0  0  0  0  0  0  0
   16.5802  -11.9644    0.0000 C   0  0  0  0  0  0  0  0  0  0  0  0
   16.5784  -10.3121    0.0000 C   0  0  0  0  0  0  0  0  0  0  0  0
   17.2935  -10.7210    0.0000 C   0  0  0  0  0  0  0  0  0  0  0  0
   17.2923  -11.5491    0.0000 C   0  0  0  0  0  0  0  0  0  0  0  0
   18.0073  -10.3057    0.0000 C   0  0  0  0  0  0  0  0  0  0  0  0
   18.7245  -10.7230    0.0000 N   0  0  0  0  0  0  0  0  0  0  0  0
   18.7211  -11.5491    0.0000 C   0  0  0  0  0  0  0  0  0  0  0  0
   19.4308  -11.9629    0.0000 C   0  0  0  0  0  0  0  0  0  0  0  0
   20.1486  -11.5551    0.0000 N   0  0  0  0  0  0  0  0  0  0  0  0
   20.1521  -10.7290    0.0000 C   0  0  0  0  0  0  0  0  0  0  0  0
   19.4378  -10.3107    0.0000 C   0  0  0  0  0  0  0  0  0  0  0  0
   20.8605  -11.9714    0.0000 C   0  0  0  0  0  0  0  0  0  0  0  0
   20.8559  -12.7960    0.0000 O   0  0  0  0  0  0  0  0  0  0  0  0
   21.5769  -11.5630    0.0000 C   0  0  0  0  0  0  0  0  0  0  0  0
   22.2859  -11.9833    0.0000 N   0  0  0  0  0  0  0  0  0  0  0  0
   23.0002  -11.5785    0.0000 C   0  0  0  0  0  0  0  0  0  0  0  0
   23.0091  -10.7536    0.0000 C   0  0  0  0  0  0  0  0  0  0  0  0
   22.2974  -10.3350    0.0000 C   0  0  0  0  0  0  0  0  0  0  0  0
   21.5769  -10.7416    0.0000 C   0  0  0  0  0  0  0  0  0  0  0  0
  2  3  1  0
  8 13  1  0
  9 10  1  0
 10 11  1  0
 11 12  1  0
 12 13  1  0
  3  6  2  0
 11 14  1  0
  5  7  1  0
 14 15  2  0
  8  7  1  0
 14 16  1  0
 16 17  1  0
  8  9  1  0
  1  2  2  0
  5  4  2  0
  4  1  1  0
  5  6  1  0
 16 21  1  0
 17 18  1  0
 18 19  1  0
 19 20  1  0
 20 21  1  0
M  END

> <chembl_id>
CHEMBL6346

> <chembl_pref_name>
SCR01020

$$$$

     RDKit          2D

 19 21  0  0  1  0  0  0  0  0999 V2000
    5.6042   -1.9125    0.0000 N   0  0  0  0  0  0  0  0  0  0  0  0
    4.3792   -3.0125    0.0000 N   0  0  0  0  0  0  0  0  0  0  0  0
    2.3167   -3.8000    0.0000 N   0  0  0  0  0  0  0  0  0  0  0  0
    7.9542   -2.6792    0.0000 N   0  0  0  0  0  0  0  0  0  0  0  0
    6.2292   -1.3625    0.0000 C   0  0  0  0  0  0  0  0  0  0  0  0
    7.0042   -1.6167    0.0000 C   0  0  0  0  0  0  0  0  0  0  0  0
    3.7667   -3.5625    0.0000 C   0  0  0  0  0  0  0  0  0  0  0  0
    4.2042   -2.2125    0.0000 C   0  0  0  0  0  0  0  0  0  0  0  0
    5.7792   -2.7250    0.0000 C   0  0  0  0  0  0  0  0  0  0  0  0
    5.1667   -3.2750    0.0000 C   0  0  0  0  0  0  0  0  0  0  0  0
    4.8292   -1.6542    0.0000 C   0  0  0  0  0  0  0  0  0  0  0  0
    2.9792   -3.3125    0.0000 C   0  0  0  0  0  0  0  0  0  0  0  0
    7.1667   -2.4250    0.0000 C   0  0  0  0  0  0  0  0  0  0  0  0
    1.6542   -3.3125    0.0000 C   0  0  0  0  0  0  0  0  0  0  0  0
    8.5667   -2.1292    0.0000 C   0  0  0  0  0  0  0  0  0  0  0  0
    7.6167   -1.0667    0.0000 C   0  0  0  0  0  0  0  0  0  0  0  0
    2.7292   -2.5250    0.0000 C   0  0  0  0  0  0  0  0  0  0  0  0
    8.4042   -1.3250    0.0000 C   0  0  0  0  0  0  0  0  0  0  0  0
    1.9042   -2.5250    0.0000 C   0  0  0  0  0  0  0  0  0  0  0  0
  2  8  1  0
  3 12  1  0
  4 13  1  0
  5  1  1  0
  6  5  1  0
  7  2  1  0
  8 11  1  0
  9  1  1  0
 10  9  1  0
 11  1  1  0
 12  7  1  1
 13  6  2  0
 14  3  1  0
 15 18  1  0
 16  6  1  0
 17 12  1  0
 18 16  2  0
 19 17  1  0
  2 10  1  0
  4 15  2  0
 14 19  1  0
M  END

> <chembl_id>
CHEMBL414181

> <chembl_pref_name>
None

$$$$

     RDKit          2D

 19 21  0  0  1  0  0  0  0  0999 V2000
    5.6042   -1.9125    0.0000 N   0  0  0  0  0  0  0  0  0  0  0  0
    4.3667   -3.0125    0.0000 N   0  0  0  0  0  0  0  0  0  0  0  0
    2.3125   -3.8000    0.0000 N   0  0  0  0  0  0  0  0  0  0  0  0
    8.5667   -2.1292    0.0000 N   0  0  0  0  0  0  0  0  0  0  0  0
    6.2167   -1.3625    0.0000 C   0  0  0  0  0  0  0  0  0  0  0  0
    3.7667   -3.5625    0.0000 C   0  0  0  0  0  0  0  0  0  0  0  0
    4.8167   -1.6542    0.0000 C   0  0  0  0  0  0  0  0  0  0  0  0
    4.2042   -2.2125    0.0000 C   0  0  0  0  0  0  0  0  0  0  0  0
    5.7750   -2.7250    0.0000 C   0  0  0  0  0  0  0  0  0  0  0  0
    5.1625   -3.2750    0.0000 C   0  0  0  0  0  0  0  0  0  0  0  0
    2.9792   -3.3125    0.0000 C   0  0  0  0  0  0  0  0  0  0  0  0
    7.0042   -1.6167    0.0000 C   0  0  0  0  0  0  0  0  0  0  0  0
    1.6417   -3.3125    0.0000 C   0  0  0  0  0  0  0  0  0  0  0  0
    7.9500   -2.6792    0.0000 C   0  0  0  0  0  0  0  0  0  0  0  0
    8.3917   -1.3250    0.0000 C   0  0  0  0  0  0  0  0  0  0  0  0
    7.1667   -2.4250    0.0000 C   0  0  0  0  0  0  0  0  0  0  0  0
    7.6125   -1.0667    0.0000 C   0  0  0  0  0  0  0  0  0  0  0  0
    2.7250   -2.5250    0.0000 C   0  0  0  0  0  0  0  0  0  0  0  0
    1.9000   -2.5250    0.0000 C   0  0  0  0  0  0  0  0  0  0  0  0
  2 10  1  0
  3 11  1  0
  4 15  1  0
  5  1  1  0
  6  2  1  0
  7  1  1  0
  8  7  1  0
  9  1  1  0
 10  9  1  0
 11  6  1  1
 12  5  1  0
 13  3  1  0
 14 16  1  0
 15 17  2  0
 16 12  2  0
 17 12  1  0
 18 11  1  0
 19 18  1  0
  8  2  1  0
 14  4  2  0
 13 19  1  0
M  END

> <chembl_id>
CHEMBL6334

> <chembl_pref_name>
None

$$$$
