
     RDKit          2D

 13 13  0  0  0  0  0  0  0  0999 V2000
    8.8810   -2.1206    0.0000 C   0  0  0  0  0  0  0  0  0  0  0  0
    8.8798   -2.9479    0.0000 C   0  0  0  0  0  0  0  0  0  0  0  0
    9.5946   -3.3607    0.0000 C   0  0  0  0  0  0  0  0  0  0  0  0
   10.3110   -2.9474    0.0000 C   0  0  0  0  0  0  0  0  0  0  0  0
   10.3081   -2.1170    0.0000 C   0  0  0  0  0  0  0  0  0  0  0  0
    9.5928   -1.7078    0.0000 C   0  0  0  0  0  0  0  0  0  0  0  0
   11.0210   -1.7018    0.0000 C   0  0  0  0  0  0  0  0  0  0  0  0
   11.7369   -2.1116    0.0000 O   0  0  0  0  0  0  0  0  0  0  0  0
   11.0260   -3.3588    0.0000 O   0  0  0  0  0  0  0  0  0  0  0  0
   11.0273   -4.1837    0.0000 C   0  0  0  0  0  0  0  0  0  0  0  0
   11.7423   -4.5949    0.0000 C   0  0  0  0  0  0  0  0  0  0  0  0
   10.3136   -4.5972    0.0000 O   0  0  0  0  0  0  0  0  0  0  0  0
   11.0178   -0.8769    0.0000 O   0  0  0  0  0  0  0  0  0  0  0  0
  1  2  2  0
  5  7  1  0
  3  4  2  0
  7  8  2  0
  4  9  1  0
  4  5  1  0
  9 10  1  0
  2  3  1  0
 10 11  1  0
  5  6  2  0
 10 12  2  0
  6  1  1  0
  7 13  1  0
M  END

> <chembl_id>
CHEMBL25

> <chembl_pref_name>
ASPIRIN

$$$$

     RDKit          2D

 24 25  0  0  0  0  0  0  0  0999 V2000
   15.6199   -4.4248    0.0000 C   0  0  0  0  0  0  0  0  0  0  0  0
   14.9050   -4.0241    0.0000 C   0  0  0  0  0  0  0  0  0  0  0  0
   14.2027   -4.4428    0.0000 C   0  0  0  0  0  0  0  0  0  0  0  0
   14.2140   -5.2621    0.0000 C   0  0  0  0  0  0  0  0  0  0  0  0
   14.9336   -5.6608    0.0000 C   0  0  0  0  0  0  0  0  0  0  0  0
   15.6330   -5.2397    0.0000 C   0  0  0  0  0  0  0  0  0  0  0  0
   14.8940   -3.2070    0.0000 O   0  0  0  0  0  0  0  0  0  0  0  0
   16.3217   -4.0060    0.0000 O   0  0  0  0  0  0  0  0  0  0  0  0
   17.0352   -4.4043    0.0000 C   0  0  0  0  0  0  0  0  0  0  0  0
   14.9483   -6.4778    0.0000 C   0  0  0  0  0  0  0  0  0  0  0  0
   14.2481   -6.8991    0.0000 C   0  0  0  0  0  0  0  0  0  0  0  0
   14.2627   -7.7161    0.0000 C   0  0  0  0  0  0  0  0  0  0  0  0
   12.0707   -3.2192    0.0000 C   0  0  0  0  0  0  0  0  0  0  0  0
   12.0696   -4.0387    0.0000 C   0  0  0  0  0  0  0  0  0  0  0  0
   12.7776   -4.4477    0.0000 C   0  0  0  0  0  0  0  0  0  0  0  0
   13.4873   -4.0383    0.0000 C   0  0  0  0  0  0  0  0  0  0  0  0
   13.4845   -3.2156    0.0000 C   0  0  0  0  0  0  0  0  0  0  0  0
   12.7758   -2.8103    0.0000 C   0  0  0  0  0  0  0  0  0  0  0  0
   12.7713   -1.9922    0.0000 O   0  0  0  0  0  0  0  0  0  0  0  0
   14.1922   -2.8041    0.0000 C   0  0  0  0  0  0  0  0  0  0  0  0
   14.1891   -1.9869    0.0000 O   0  0  0  0  0  0  0  0  0  0  0  0
   13.4768   -1.5798    0.0000 C   0  0  0  0  0  0  0  0  0  0  0  0
   13.4723   -0.7626    0.0000 O   0  0  0  0  0  0  0  0  0  0  0  0
   14.2926   -1.5766    0.0000 C   0  0  0  0  0  0  0  0  0  0  0  0
  1  2  2  0
  2  3  1  0
  3  4  2  0
  4  5  1  0
  5  6  2  0
  6  1  1  0
  2  7  1  0
  1  8  1  0
  8  9  1  0
  5 10  1  0
 10 11  1  0
 11 12  2  0
 13 14  2  0
 14 15  1  0
 15 16  2  0
 16 17  1  0
 17 18  2  0
 18 13  1  0
 18 19  1  0
 20  7  1  0
 20 21  2  0
 17 20  1  0
 19 22  1  0
 22 23  2  0
 22 24  1  0
M  END

> <chembl_id>
CHEMBL2260549

> <chembl_pref_name>
ASPIRIN EUGENOL ESTER

$$$$

     RDKit          2D

 23 22  0  0  0  0  0  0  0  0999 V2000
    2.4973   -3.1821    0.0000 O   0  0  0  0  0  0  0  0  0  0  0  0
    1.7828   -2.7696    0.0000 C   0  0  0  0  0  0  0  0  0  0  0  0
    1.0683   -3.1821    0.0000 C   0  0  0  0  0  0  0  0  0  0  0  0
    0.3539   -2.7696    0.0000 C   0  0  0  0  0  0  0  0  0  0  0  0
   -0.3606   -3.1821    0.0000 C   0  0  0  0  0  0  0  0  0  0  0  0
   -1.0751   -2.7696    0.0000 C   0  0  0  0  0  0  0  0  0  0  0  0
   -1.7895   -3.1821    0.0000 C   0  0  0  0  0  0  0  0  0  0  0  0
   -2.5040   -2.7696    0.0000 N   0  0  0  0  0  0  0  0  0  0  0  0
    1.7828   -1.9446    0.0000 O   0  0  0  0  0  0  0  0  0  0  0  0
    1.0683   -4.0071    0.0000 N   0  0  0  0  0  0  0  0  0  0  0  0
    3.5724    1.2375    0.0000 C   0  0  0  0  0  0  0  0  0  0  0  0
    2.8579    0.8250    0.0000 C   0  0  0  0  0  0  0  0  0  0  0  0
    2.8579    0.0000    0.0000 O   0  0  0  0  0  0  0  0  0  0  0  0
    2.1434    1.2375    0.0000 O   0  0  0  0  0  0  0  0  0  0  0  0
    1.4289    0.8250    0.0000 C   0  0  0  0  0  0  0  0  0  0  0  0
    1.4289    0.0000    0.0000 C   0  0  0  0  0  0  0  0  0  0  0  0
    0.7145   -0.4125    0.0000 C   0  0  0  0  0  0  0  0  0  0  0  0
    0.0000    0.0000    0.0000 C   0  0  0  0  0  0  0  0  0  0  0  0
    0.0000    0.8250    0.0000 C   0  0  0  0  0  0  0  0  0  0  0  0
    0.7145    1.2375    0.0000 C   0  0  0  0  0  0  0  0  0  0  0  0
    0.7145    2.0625    0.0000 C   0  0  0  0  0  0  0  0  0  0  0  0
    1.4289    2.4750    0.0000 O   0  0  0  0  0  0  0  0  0  0  0  0
    0.0000    2.4750    0.0000 O   0  0  0  0  0  0  0  0  0  0  0  0
  1  2  1  0
  2  3  1  0
  3  4  1  0
  4  5  1  0
  5  6  1  0
  6  7  1  0
  7  8  1  0
  2  9  2  0
  3 10  1  0
 11 12  1  0
 12 13  2  0
 12 14  1  0
 14 15  1  0
 15 16  2  0
 16 17  1  0
 17 18  2  0
 18 19  1  0
 19 20  2  0
 15 20  1  0
 20 21  1  0
 21 22  1  0
 21 23  2  0
M  END

> <chembl_id>
CHEMBL1697753

> <chembl_pref_name>
ASPIRIN DL-LYSINE

$$$$

     RDKit          2D

 24 26  0  0  0  0  0  0  0  0999 V2000
   -4.3748   -7.9742    0.0000 C   0  0  0  0  0  0  0  0  0  0  0  0
   -4.3572   -8.8024    0.0000 C   0  0  0  0  0  0  0  0  0  0  0  0
   -3.6359   -9.2016    0.0000 C   0  0  0  0  0  0  0  0  0  0  0  0
   -2.9276   -8.7694    0.0000 C   0  0  0  0  0  0  0  0  0  0  0  0
   -2.9492   -7.9381    0.0000 C   0  0  0  0  0  0  0  0  0  0  0  0
   -3.6752   -7.5469    0.0000 C   0  0  0  0  0  0  0  0  0  0  0  0
   -2.2018   -9.1671    0.0000 C   0  0  0  0  0  0  0  0  0  0  0  0
   -2.1817   -9.9929    0.0000 O   0  0  0  0  0  0  0  0  0  0  0  0
   -1.4960   -8.7347    0.0000 O   0  0  0  0  0  0  0  0  0  0  0  0
   -0.7702   -9.1325    0.0000 C   0  0  0  0  0  0  0  0  0  0  0  0
   -0.6664   -9.9498    0.0000 C   0  0  0  0  0  0  0  0  0  0  0  0
    0.1457  -10.1010    0.0000 O   0  0  0  0  0  0  0  0  0  0  0  0
   -0.0256   -8.7740    0.0000 C   0  0  0  0  0  0  0  0  0  0  0  0
    0.5352   -9.3758    0.0000 C   0  0  0  0  0  0  0  0  0  0  0  0
    1.2812   -9.0272    0.0000 C   0  0  0  0  0  0  0  0  0  0  0  0
    1.1789   -8.2098    0.0000 C   0  0  0  0  0  0  0  0  0  0  0  0
    0.3697   -8.0518    0.0000 O   0  0  0  0  0  0  0  0  0  0  0  0
    1.1314   -9.9461    0.0000 H   0  0  0  0  0  0  0  0  0  0  0  0
   -0.6313   -8.2006    0.0000 H   0  0  0  0  0  0  0  0  0  0  0  0
    2.0054   -9.4237    0.0000 O   0  0  0  0  0  0  0  0  0  0  0  0
   -3.6174  -10.0274    0.0000 O   0  0  0  0  0  0  0  0  0  0  0  0
   -4.3197  -10.4543    0.0000 C   0  0  0  0  0  0  0  0  0  0  0  0
   -5.0447  -10.0595    0.0000 O   0  0  0  0  0  0  0  0  0  0  0  0
   -4.3012  -11.2802    0.0000 C   0  0  0  0  0  0  0  0  0  0  0  0
 11 12  1  0
 12 14  1  0
 13 10  1  0
 13 14  1  0
  6  1  1  0
  1  2  2  0
  4  7  1  0
  3  4  2  0
  7  8  2  0
 14 15  1  0
 15 16  1  0
 16 17  1  0
 17 13  1  0
 14 18  1  6
  7  9  1  0
 13 19  1  6
  4  5  1  0
 15 20  1  1
 10  9  1  6
  3 21  1  0
 10 11  1  0
 21 22  1  0
  2  3  1  0
 22 23  2  0
  5  6  2  0
 22 24  1  0
M  END

> <chembl_id>
CHEMBL458500

> <chembl_pref_name>
None

$$$$

     RDKit          2D

 21 22  0  0  0  0  0  0  0  0999 V2000
   12.7160  -10.6482    0.0000 C   0  0  0  0  0  0  0  0  0  0  0  0
   12.3115   -9.9425    0.0000 C   0  0  0  0  0  0  0  0  0  0  0  0
   11.9026  -10.6457    0.0000 C   0  0  0  0  0  0  0  0  0  0  0  0
   11.9252   -7.8932    0.0000 C   0  0  0  0  0  0  0  0  0  0  0  0
   12.3033   -8.6177    0.0000 C   0  0  0  0  0  0  0  0  0  0  0  0
   12.7417   -7.9280    0.0000 C   0  0  0  0  0  0  0  0  0  0  0  0
   10.1144   -8.8818    0.0000 C   0  0  0  0  0  0  0  0  0  0  0  0
   10.1133   -9.7013    0.0000 C   0  0  0  0  0  0  0  0  0  0  0  0
   10.8213  -10.1103    0.0000 C   0  0  0  0  0  0  0  0  0  0  0  0
   10.8195   -8.4729    0.0000 C   0  0  0  0  0  0  0  0  0  0  0  0
   11.5282   -8.8782    0.0000 C   0  0  0  0  0  0  0  0  0  0  0  0
   11.5329   -9.6968    0.0000 C   0  0  0  0  0  0  0  0  0  0  0  0
   12.7903   -9.2801    0.0000 N   0  0  0  0  0  0  0  0  0  0  0  0
    9.4052  -10.1093    0.0000 O   0  0  0  0  0  0  0  0  0  0  0  0
    9.4066   -8.4733    0.0000 C   0  0  0  0  0  0  0  0  0  0  0  0
    9.4064   -7.6561    0.0000 O   0  0  0  0  0  0  0  0  0  0  0  0
    8.6990   -8.8821    0.0000 O   0  0  0  0  0  0  0  0  0  0  0  0
   13.6075   -9.2753    0.0000 O   0  0  0  0  0  1  0  0  0  0  0  0
    9.4046  -10.9265    0.0000 C   0  0  0  0  0  0  0  0  0  0  0  0
    8.6966  -11.3346    0.0000 C   0  0  0  0  0  0  0  0  0  0  0  0
   10.1120  -11.3357    0.0000 O   0  0  0  0  0  0  0  0  0  0  0  0
  2  1  1  0
  3  2  1  0
  5  4  1  0
  6  5  1  0
  7  8  2  0
  8  9  1  0
  9 12  2  0
 11 10  2  0
 10  7  1  0
 11 12  1  0
 12  2  1  0
  2 13  1  0
 13  5  1  0
  5 11  1  0
  8 14  1  0
  7 15  1  0
 15 16  2  0
 15 17  1  0
 13 18  1  0
 14 19  1  0
 19 20  1  0
 19 21  2  0
M  RAD  1  18   2
M  END

> <chembl_id>
CHEMBL4168118

> <chembl_pref_name>
None

$$$$

     RDKit          2D

 24 26  0  0  0  0  0  0  0  0999 V2000
   -4.3277   -6.3676    0.0000 O   0  0  0  0  0  0  0  0  0  0  0  0
   -3.6115   -6.7814    0.0000 C   0  0  0  0  0  0  0  0  0  0  0  0
   -3.5262   -7.6004    0.0000 C   0  0  0  0  0  0  0  0  0  0  0  0
   -2.7183   -7.7699    0.0000 O   0  0  0  0  0  0  0  0  0  0  0  0
   -2.8594   -6.4401    0.0000 C   0  0  0  0  0  0  0  0  0  0  0  0
   -2.3085   -7.0542    0.0000 C   0  0  0  0  0  0  0  0  0  0  0  0
   -1.5553   -6.7228    0.0000 C   0  0  0  0  0  0  0  0  0  0  0  0
   -1.6431   -5.9037    0.0000 C   0  0  0  0  0  0  0  0  0  0  0  0
   -2.4481   -5.7317    0.0000 O   0  0  0  0  0  0  0  0  0  0  0  0
   -3.4516   -5.8536    0.0000 H   0  0  0  0  0  0  0  0  0  0  0  0
   -1.7299   -7.6374    0.0000 H   0  0  0  0  0  0  0  0  0  0  0  0
   -0.8449   -7.1352    0.0000 O   0  0  0  0  0  0  0  0  0  0  0  0
   -0.1284   -6.7262    0.0000 C   0  0  0  0  0  0  0  0  0  0  0  0
    0.5861   -7.1386    0.0000 C   0  0  0  0  0  0  0  0  0  0  0  0
   -0.1264   -5.9006    0.0000 O   0  0  0  0  0  0  0  0  0  0  0  0
    0.5803   -7.9621    0.0000 C   0  0  0  0  0  0  0  0  0  0  0  0
    1.2939   -8.3786    0.0000 C   0  0  0  0  0  0  0  0  0  0  0  0
    2.0114   -7.9654    0.0000 C   0  0  0  0  0  0  0  0  0  0  0  0
    2.0107   -7.1355    0.0000 C   0  0  0  0  0  0  0  0  0  0  0  0
    1.2964   -6.7269    0.0000 C   0  0  0  0  0  0  0  0  0  0  0  0
   -0.1373   -8.3734    0.0000 O   0  0  0  0  0  0  0  0  0  0  0  0
   -0.1414   -9.1990    0.0000 C   0  0  0  0  0  0  0  0  0  0  0  0
   -0.8589   -9.6061    0.0000 C   0  0  0  0  0  0  0  0  0  0  0  0
    0.5720   -9.6132    0.0000 O   0  0  0  0  0  0  0  0  0  0  0  0
  2  3  1  0
  7 12  1  1
 12 13  1  0
  2  1  1  6
 13 14  1  0
  3  4  1  0
 13 15  2  0
  4  6  1  0
 14 16  2  0
  6  7  1  0
 16 17  1  0
  7  8  1  0
 17 18  2  0
  8  9  1  0
 18 19  1  0
  9  5  1  0
 19 20  2  0
 20 14  1  0
  5  2  1  0
 16 21  1  0
  5 10  1  6
 21 22  1  0
  5  6  1  0
 22 23  1  0
  6 11  1  6
 22 24  2  0
M  END

> <chembl_id>
CHEMBL457234

> <chembl_pref_name>
None

$$$$

     RDKit          2D

 33 36  0  0  0  0  0  0  0  0999 V2000
   -4.2870   -5.4790    0.0000 C   0  0  0  0  0  0  0  0  0  0  0  0
   -4.2693   -6.3062    0.0000 C   0  0  0  0  0  0  0  0  0  0  0  0
   -3.5453   -6.7026    0.0000 C   0  0  0  0  0  0  0  0  0  0  0  0
   -2.8385   -6.2731    0.0000 C   0  0  0  0  0  0  0  0  0  0  0  0
   -2.8602   -5.4428    0.0000 C   0  0  0  0  0  0  0  0  0  0  0  0
   -3.5848   -5.0501    0.0000 C   0  0  0  0  0  0  0  0  0  0  0  0
   -2.1142   -6.6680    0.0000 C   0  0  0  0  0  0  0  0  0  0  0  0
   -2.0941   -7.4928    0.0000 O   0  0  0  0  0  0  0  0  0  0  0  0
   -1.4099   -6.2383    0.0000 O   0  0  0  0  0  0  0  0  0  0  0  0
   -0.6856   -6.6332    0.0000 C   0  0  0  0  0  0  0  0  0  0  0  0
   -0.5814   -7.4495    0.0000 C   0  0  0  0  0  0  0  0  0  0  0  0
    0.2295   -7.6013    0.0000 O   0  0  0  0  0  0  0  0  0  0  0  0
    0.0577   -6.2776    0.0000 C   0  0  0  0  0  0  0  0  0  0  0  0
    0.6206   -6.8776    0.0000 C   0  0  0  0  0  0  0  0  0  0  0  0
    1.3652   -6.5277    0.0000 C   0  0  0  0  0  0  0  0  0  0  0  0
    1.2625   -5.7113    0.0000 C   0  0  0  0  0  0  0  0  0  0  0  0
    0.4544   -5.5569    0.0000 O   0  0  0  0  0  0  0  0  0  0  0  0
    1.2148   -7.4458    0.0000 H   0  0  0  0  0  0  0  0  0  0  0  0
   -0.5462   -5.7022    0.0000 H   0  0  0  0  0  0  0  0  0  0  0  0
    2.0879   -6.9255    0.0000 O   0  0  0  0  0  0  0  0  0  0  0  0
   -3.5267   -7.5274    0.0000 O   0  0  0  0  0  0  0  0  0  0  0  0
   -4.2317   -7.9559    0.0000 C   0  0  0  0  0  0  0  0  0  0  0  0
   -4.9553   -7.5596    0.0000 O   0  0  0  0  0  0  0  0  0  0  0  0
    2.7938   -6.4985    0.0000 C   0  0  0  0  0  0  0  0  0  0  0  0
    3.5166   -6.8963    0.0000 C   0  0  0  0  0  0  0  0  0  0  0  0
    2.7770   -5.6737    0.0000 O   0  0  0  0  0  0  0  0  0  0  0  0
    3.5307   -7.7218    0.0000 C   0  0  0  0  0  0  0  0  0  0  0  0
    4.2526   -8.1196    0.0000 C   0  0  0  0  0  0  0  0  0  0  0  0
    4.9595   -7.6925    0.0000 C   0  0  0  0  0  0  0  0  0  0  0  0
    4.9399   -6.8634    0.0000 C   0  0  0  0  0  0  0  0  0  0  0  0
    4.2175   -6.4694    0.0000 C   0  0  0  0  0  0  0  0  0  0  0  0
    4.1979   -5.6447    0.0000 O   0  0  0  0  0  0  0  0  0  0  0  0
   -4.2131   -8.7807    0.0000 C   0  0  0  0  0  0  0  0  0  0  0  0
 14 15  1  0
 15 16  1  0
 16 17  1  0
 17 13  1  0
 14 18  1  6
  7  9  1  0
 13 19  1  6
  4  5  1  0
 15 20  1  1
 10  9  1  6
  3 21  1  0
 10 11  1  0
 21 22  1  0
  2  3  1  0
 22 23  2  0
  5  6  2  0
 20 24  1  0
 11 12  1  0
 24 25  1  0
 12 14  1  0
 24 26  2  0
 13 10  1  0
 25 27  2  0
 13 14  1  0
 27 28  1  0
  6  1  1  0
 28 29  2  0
  1  2  2  0
 29 30  1  0
  4  7  1  0
 30 31  2  0
 31 25  1  0
  3  4  2  0
 31 32  1  0
  7  8  2  0
 22 33  1  0
M  END

> <chembl_id>
CHEMBL457443

> <chembl_pref_name>
None

$$$$

     RDKit          2D

 24 25  0  0  0  0  0  0  0  0999 V2000
    1.4774    0.0490    0.0000 O   0  0  0  0  0  0  0  0  0  0  0  0
    0.7622   -1.1861    0.0000 O   0  0  0  0  0  0  0  0  0  0  0  0
    0.7596   -0.3635    0.0000 C   0  0  0  0  0  0  0  0  0  0  0  0
    0.0444    0.0479    0.0000 C   0  0  0  0  0  0  0  0  0  0  0  0
    0.0438    0.8741    0.0000 C   0  0  0  0  0  0  0  0  0  0  0  0
   -0.6713    1.2854    0.0000 C   0  0  0  0  0  0  0  0  0  0  0  0
   -1.3858    0.8706    0.0000 C   0  0  0  0  0  0  0  0  0  0  0  0
   -1.3831    0.0480    0.0000 C   0  0  0  0  0  0  0  0  0  0  0  0
   -0.6680   -0.3634    0.0000 C   0  0  0  0  0  0  0  0  0  0  0  0
   -0.6674   -1.1896    0.0000 O   0  0  0  0  0  0  0  0  0  0  0  0
   -1.3819   -1.6044    0.0000 C   0  0  0  0  0  0  0  0  0  0  0  0
   -2.0970   -1.1930    0.0000 C   0  0  0  0  0  0  0  0  0  0  0  0
   -1.3792   -2.4270    0.0000 O   0  0  0  0  0  0  0  0  0  0  0  0
    2.8521   -2.4582    0.0000 O   0  0  0  0  0  0  0  0  0  0  0  0
    2.8712   -1.6322    0.0000 C   0  0  0  0  0  0  0  0  0  0  0  0
    2.1661   -1.2039    0.0000 C   0  0  0  0  0  0  0  0  0  0  0  0
    1.4419   -1.6015    0.0000 O   0  0  0  0  0  0  0  0  0  0  0  0
    2.1852   -0.3779    0.0000 C   0  0  0  0  0  0  0  0  0  0  0  0
    2.9095    0.0198    0.0000 C   0  0  0  0  0  0  0  0  0  0  0  0
    2.9264    0.8422    0.0000 O   0  0  0  0  0  0  0  0  0  0  0  0
    3.6146   -0.4085    0.0000 C   0  0  0  0  0  0  0  0  0  0  0  0
    3.5954   -1.2345    0.0000 O   0  0  0  0  0  0  0  0  0  0  0  0
    4.3366   -0.0144    0.0000 C   0  0  0  0  0  0  0  0  0  0  0  0
    5.0417   -0.4428    0.0000 O   0  0  0  0  0  0  0  0  0  0  0  0
 10 11  1  0
 11 12  1  0
 11 13  2  0
  2  3  2  0
  3  1  1  0
  3  4  1  0
  4  5  1  0
  5  6  2  0
  6  7  1  0
  7  8  2  0
  8  9  1  0
  4  9  2  0
  9 10  1  0
 15 14  1  6
 15 16  1  0
 16 17  1  6
 16 18  1  0
 18  1  1  1
 18 19  1  0
 19 20  1  6
 19 21  1  0
 21 22  1  0
 21 23  1  1
 23 24  1  0
 15 22  1  0
M  END

> <chembl_id>
CHEMBL2016951

> <chembl_pref_name>
None

$$$$

     RDKit          2D

 23 23  0  0  0  0  0  0  0  0999 V2000
    9.5738   -6.4591    0.0000 C   0  0  0  0  0  0  0  0  0  0  0  0
    9.5726   -7.2786    0.0000 C   0  0  0  0  0  0  0  0  0  0  0  0
   10.2807   -7.6876    0.0000 C   0  0  0  0  0  0  0  0  0  0  0  0
   10.9903   -7.2781    0.0000 C   0  0  0  0  0  0  0  0  0  0  0  0
   10.9875   -6.4555    0.0000 C   0  0  0  0  0  0  0  0  0  0  0  0
   10.2789   -6.0502    0.0000 C   0  0  0  0  0  0  0  0  0  0  0  0
   11.6936   -6.0442    0.0000 O   0  0  0  0  0  0  0  0  0  0  0  0
   12.4029   -6.4501    0.0000 C   0  0  0  0  0  0  0  0  0  0  0  0
   13.1091   -6.0389    0.0000 C   0  0  0  0  0  0  0  0  0  0  0  0
   12.4060   -7.2673    0.0000 O   0  0  0  0  0  0  0  0  0  0  0  0
   10.2764   -5.2330    0.0000 C   0  0  0  0  0  0  0  0  0  0  0  0
   10.9829   -4.8223    0.0000 O   0  0  0  0  0  0  0  0  0  0  0  0
    9.5675   -4.8265    0.0000 O   0  0  0  0  0  0  0  0  0  0  0  0
    9.5651   -4.0094    0.0000 C   0  0  0  0  0  0  0  0  0  0  0  0
    8.8561   -3.6029    0.0000 O   0  0  0  0  0  0  0  0  0  0  0  0
    8.8537   -2.7857    0.0000 N   0  0  0  0  0  0  0  0  0  0  0  0
    8.1448   -2.3792    0.0000 N   0  0  0  0  0  0  0  0  0  0  0  0
    8.1389   -1.5601    0.0000 N   0  0  0  0  0  0  0  0  0  0  0  0
    8.8437   -1.1464    0.0000 C   0  0  0  0  0  0  0  0  0  0  0  0
    9.5543   -1.5499    0.0000 C   0  0  0  0  0  0  0  0  0  0  0  0
    7.4331   -2.7818    0.0000 O   0  0  0  0  0  0  0  0  0  0  0  0
    7.4283   -1.1566    0.0000 C   0  0  0  0  0  0  0  0  0  0  0  0
    7.4224   -0.3394    0.0000 C   0  0  0  0  0  0  0  0  0  0  0  0
  1  2  2  0
  2  3  1  0
  3  4  2  0
  4  5  1  0
  5  6  2  0
  6  1  1  0
  5  7  1  0
  7  8  1  0
  8  9  1  0
  8 10  2  0
  6 11  1  0
 11 12  2  0
 11 13  1  0
 13 14  1  0
 14 15  1  0
 15 16  1  0
 16 17  2  0
 17 18  1  0
 18 19  1  0
 19 20  1  0
 17 21  1  0
 18 22  1  0
 22 23  1  0
M  CHG  2  17   1  21  -1
M  END

> <chembl_id>
CHEMBL2431795

> <chembl_pref_name>
None

$$$$

     RDKit          2D

 21 21  0  0  0  0  0  0  0  0999 V2000
    1.2990   -0.7500    0.0000 C   0  0  0  0  0  0  0  0  0  0  0  0
    1.2990    0.7500    0.0000 C   0  0  0  0  0  0  0  0  0  0  0  0
    0.0000    1.5000    0.0000 C   0  0  0  0  0  0  0  0  0  0  0  0
   -1.2990    0.7500    0.0000 C   0  0  0  0  0  0  0  0  0  0  0  0
   -1.2990   -0.7500    0.0000 C   0  0  0  0  0  0  0  0  0  0  0  0
    0.0000   -1.5000    0.0000 C   0  0  0  0  0  0  0  0  0  0  0  0
   -2.5972   -1.5031    0.0000 O   0  0  0  0  0  0  0  0  0  0  0  0
   -2.5973    1.5031    0.0000 C   0  0  0  0  0  0  0  0  0  0  0  0
   -3.6375    0.9049    0.0000 O   0  0  0  0  0  0  0  0  0  0  0  0
   -2.5951   -3.0039    0.0000 C   0  0  0  0  0  0  0  0  0  0  0  0
   -1.5548   -3.6021    0.0000 C   0  0  0  0  0  0  0  0  0  0  0  0
   -3.6331   -3.6061    0.0000 O   0  0  0  0  0  0  0  0  0  0  0  0
   -2.5951    3.0039    0.0000 O   0  0  0  0  0  0  0  0  0  0  0  0
   -3.8933    3.7570    0.0000 C   0  0  0  0  0  0  0  0  0  0  0  0
   -3.8912    5.2578    0.0000 C   0  0  0  0  0  0  0  0  0  0  0  0
   -5.1894    6.0109    0.0000 C   0  0  0  0  0  0  0  0  0  0  0  0
   -5.1873    7.5117    0.0000 C   0  0  0  0  0  0  0  0  0  0  0  0
   -6.4855    8.2648    0.0000 O   0  0  0  0  0  0  0  0  0  0  0  0
   -6.4834    9.7656    0.0000 N   0  0  0  0  0  0  0  0  0  0  0  0
   -7.5214   10.3677    0.0000 O   0  0  0  0  0  0  0  0  0  0  0  0
   -5.4431   10.3638    0.0000 O   0  0  0  0  0  0  0  0  0  0  0  0
  1  2  2  0
  2  3  1  0
  3  4  2  0
  4  5  1  0
  5  6  2  0
  6  1  1  0
  5  7  1  0
  4  8  1  0
  8  9  2  0
  7 10  1  0
 10 11  1  0
 10 12  2  0
  8 13  1  0
 13 14  1  0
 14 15  1  0
 15 16  1  0
 16 17  1  0
 17 18  1  0
 18 19  1  0
 19 20  2  0
 19 21  1  0
M  CHG  2  19   1  21  -1
M  END

> <chembl_id>
CHEMBL3601280

> <chembl_pref_name>
None

$$$$

     RDKit          2D

 33 36  0  0  0  0  0  0  0  0999 V2000
   -5.0004  -12.6653    0.0000 C   0  0  0  0  0  0  0  0  0  0  0  0
   -5.0015  -13.4932    0.0000 C   0  0  0  0  0  0  0  0  0  0  0  0
   -4.2856  -13.9043    0.0000 C   0  0  0  0  0  0  0  0  0  0  0  0
   -3.5682  -13.4928    0.0000 C   0  0  0  0  0  0  0  0  0  0  0  0
   -3.5710  -12.6617    0.0000 C   0  0  0  0  0  0  0  0  0  0  0  0
   -4.2874  -12.2502    0.0000 C   0  0  0  0  0  0  0  0  0  0  0  0
   -2.8571  -12.2441    0.0000 O   0  0  0  0  0  0  0  0  0  0  0  0
   -2.8520  -13.9023    0.0000 C   0  0  0  0  0  0  0  0  0  0  0  0
   -2.8508  -14.7278    0.0000 O   0  0  0  0  0  0  0  0  0  0  0  0
   -2.1372  -13.4905    0.0000 O   0  0  0  0  0  0  0  0  0  0  0  0
   -1.4211  -13.9001    0.0000 C   0  0  0  0  0  0  0  0  0  0  0  0
   -1.3357  -14.7191    0.0000 C   0  0  0  0  0  0  0  0  0  0  0  0
   -0.5279  -14.8885    0.0000 O   0  0  0  0  0  0  0  0  0  0  0  0
   -0.6690  -13.5629    0.0000 C   0  0  0  0  0  0  0  0  0  0  0  0
   -0.1223  -14.1771    0.0000 C   0  0  0  0  0  0  0  0  0  0  0  0
    0.6310  -13.8415    0.0000 C   0  0  0  0  0  0  0  0  0  0  0  0
    0.5473  -13.0224    0.0000 C   0  0  0  0  0  0  0  0  0  0  0  0
   -0.2577  -12.8504    0.0000 O   0  0  0  0  0  0  0  0  0  0  0  0
   -1.2612  -12.9723    0.0000 H   0  0  0  0  0  0  0  0  0  0  0  0
    0.4605  -14.7561    0.0000 H   0  0  0  0  0  0  0  0  0  0  0  0
    1.3455  -14.2580    0.0000 O   0  0  0  0  0  0  0  0  0  0  0  0
    2.0620  -13.8449    0.0000 C   0  0  0  0  0  0  0  0  0  0  0  0
    2.7765  -14.2614    0.0000 C   0  0  0  0  0  0  0  0  0  0  0  0
    2.0640  -13.0193    0.0000 O   0  0  0  0  0  0  0  0  0  0  0  0
    2.7707  -15.0850    0.0000 C   0  0  0  0  0  0  0  0  0  0  0  0
    3.4843  -15.4973    0.0000 C   0  0  0  0  0  0  0  0  0  0  0  0
    4.2018  -15.0882    0.0000 C   0  0  0  0  0  0  0  0  0  0  0  0
    4.2011  -14.2584    0.0000 C   0  0  0  0  0  0  0  0  0  0  0  0
    3.4868  -13.8456    0.0000 C   0  0  0  0  0  0  0  0  0  0  0  0
    2.0531  -15.4921    0.0000 O   0  0  0  0  0  0  0  0  0  0  0  0
    2.0490  -16.3177    0.0000 C   0  0  0  0  0  0  0  0  0  0  0  0
    1.3315  -16.7290    0.0000 C   0  0  0  0  0  0  0  0  0  0  0  0
    2.7624  -16.7360    0.0000 O   0  0  0  0  0  0  0  0  0  0  0  0
  4  8  1  0
 15 16  1  0
 16 17  1  0
 17 18  1  0
 18 14  1  0
  8  9  2  0
 14 19  1  6
  4  5  1  0
 15 20  1  6
  8 10  1  0
 16 21  1  1
  2  3  1  0
 21 22  1  0
 11 10  1  6
 22 23  1  0
 11 12  1  0
 22 24  2  0
  5  6  2  0
 23 25  2  0
  6  1  1  0
 25 26  1  0
 12 13  1  0
 26 27  2  0
 13 15  1  0
 27 28  1  0
 14 11  1  0
 28 29  2  0
 29 23  1  0
 14 15  1  0
 25 30  1  0
  1  2  2  0
 30 31  1  0
  5  7  1  0
 31 32  1  0
  3  4  2  0
 31 33  2  0
M  END

> <chembl_id>
CHEMBL456555

> <chembl_pref_name>
None

$$$$

     RDKit          2D

 27 29  0  0  0  0  0  0  0  0999 V2000
   -4.8145    1.3002    0.0000 C   0  0  0  0  0  0  0  0  0  0  0  0
   -4.8157    0.4727    0.0000 C   0  0  0  0  0  0  0  0  0  0  0  0
   -4.1009    0.0598    0.0000 C   0  0  0  0  0  0  0  0  0  0  0  0
   -3.3842    0.4731    0.0000 C   0  0  0  0  0  0  0  0  0  0  0  0
   -3.3871    1.3039    0.0000 C   0  0  0  0  0  0  0  0  0  0  0  0
   -4.1027    1.7130    0.0000 C   0  0  0  0  0  0  0  0  0  0  0  0
   -2.6742    1.7191    0.0000 O   0  0  0  0  0  0  0  0  0  0  0  0
   -2.6691    0.0618    0.0000 C   0  0  0  0  0  0  0  0  0  0  0  0
   -2.6773    2.5443    0.0000 C   0  0  0  0  0  0  0  0  0  0  0  0
   -1.9642    2.9594    0.0000 C   0  0  0  0  0  0  0  0  0  0  0  0
   -3.3933    2.9541    0.0000 O   0  0  0  0  0  0  0  0  0  0  0  0
   -2.6678   -0.7634    0.0000 O   0  0  0  0  0  0  0  0  0  0  0  0
   -1.9551    0.4754    0.0000 O   0  0  0  0  0  0  0  0  0  0  0  0
   -1.2400    0.0640    0.0000 C   0  0  0  0  0  0  0  0  0  0  0  0
   -1.1543   -0.7545    0.0000 C   0  0  0  0  0  0  0  0  0  0  0  0
   -0.3469   -0.9249    0.0000 O   0  0  0  0  0  0  0  0  0  0  0  0
   -0.4886    0.4026    0.0000 C   0  0  0  0  0  0  0  0  0  0  0  0
    0.0605   -0.2100    0.0000 C   0  0  0  0  0  0  0  0  0  0  0  0
    0.8131    0.1228    0.0000 C   0  0  0  0  0  0  0  0  0  0  0  0
    0.7289    0.9415    0.0000 C   0  0  0  0  0  0  0  0  0  0  0  0
   -0.0755    1.1143    0.0000 O   0  0  0  0  0  0  0  0  0  0  0  0
    0.6417   -0.7919    0.0000 H   0  0  0  0  0  0  0  0  0  0  0  0
   -1.0794    0.9919    0.0000 H   0  0  0  0  0  0  0  0  0  0  0  0
    1.5266   -0.2914    0.0000 O   0  0  0  0  0  0  0  0  0  0  0  0
    1.5247   -1.1166    0.0000 N   0  0  0  0  0  0  0  0  0  0  0  0
    2.2395   -1.5365    0.0000 O   0  0  0  0  0  0  0  0  0  0  0  0
    0.8106   -1.5331    0.0000 O   0  0  0  0  0  0  0  0  0  0  0  0
  1  2  2  0
 14 13  1  6
 14 15  1  0
  5  7  1  0
  3  4  2  0
 15 16  1  0
 16 18  1  0
 17 14  1  0
 17 18  1  0
  4  8  1  0
  7  9  1  0
  4  5  1  0
  9 10  1  0
 18 19  1  0
 19 20  1  0
 20 21  1  0
 21 17  1  0
  2  3  1  0
 18 22  1  6
  9 11  2  0
 17 23  1  6
  5  6  2  0
 19 24  1  1
  8 12  2  0
 24 25  1  0
  6  1  1  0
  8 13  1  0
 25 26  2  0
 25 27  1  0
M  CHG  2  25   1  27  -1
M  END

> <chembl_id>
CHEMBL585137

> <chembl_pref_name>
None

$$$$

     RDKit          2D

 27 29  0  0  0  0  0  0  0  0999 V2000
    5.3084   -1.4623    0.0000 O   0  0  0  0  0  0  0  0  0  0  0  0
    5.2983   -0.6366    0.0000 C   0  0  0  0  0  0  0  0  0  0  0  0
    5.9596   -0.1456    0.0000 C   0  0  0  0  0  0  0  0  0  0  0  0
    5.6949    0.6365    0.0000 O   0  0  0  0  0  0  0  0  0  0  0  0
    4.6237   -0.1621    0.0000 C   0  0  0  0  0  0  0  0  0  0  0  0
    4.8716    0.6233    0.0000 C   0  0  0  0  0  0  0  0  0  0  0  0
    4.2014    1.1017    0.0000 C   0  0  0  0  0  0  0  0  0  0  0  0
    3.5392    0.6122    0.0000 C   0  0  0  0  0  0  0  0  0  0  0  0
    3.8002   -0.1689    0.0000 O   0  0  0  0  0  0  0  0  0  0  0  0
    5.0764    1.4203    0.0000 H   0  0  0  0  0  0  0  0  0  0  0  0
    4.4173   -0.9710    0.0000 H   0  0  0  0  0  0  0  0  0  0  0  0
    4.1945    1.9275    0.0000 O   0  0  0  0  0  0  0  0  0  0  0  0
    4.9062    2.3463    0.0000 N   0  0  0  0  0  0  0  0  0  0  0  0
    4.9036    3.1761    0.0000 O   0  0  0  0  0  0  0  0  0  0  0  0
    5.6289    1.9434    0.0000 O   0  0  0  0  0  0  0  0  0  0  0  0
    6.0286   -1.8663    0.0000 C   0  0  0  0  0  0  0  0  0  0  0  0
    6.0387   -2.6921    0.0000 O   0  0  0  0  0  0  0  0  0  0  0  0
    6.7386   -1.4447    0.0000 C   0  0  0  0  0  0  0  0  0  0  0  0
    7.4564   -1.8514    0.0000 C   0  0  0  0  0  0  0  0  0  0  0  0
    8.1660   -1.4305    0.0000 C   0  0  0  0  0  0  0  0  0  0  0  0
    8.1563   -0.6039    0.0000 C   0  0  0  0  0  0  0  0  0  0  0  0
    7.4311   -0.2000    0.0000 C   0  0  0  0  0  0  0  0  0  0  0  0
    6.7246   -0.6233    0.0000 C   0  0  0  0  0  0  0  0  0  0  0  0
    7.4646   -2.6771    0.0000 O   0  0  0  0  0  0  0  0  0  0  0  0
    8.1839   -3.0829    0.0000 C   0  0  0  0  0  0  0  0  0  0  0  0
    8.1921   -3.9086    0.0000 O   0  0  0  0  0  0  0  0  0  0  0  0
    8.8949   -2.6629    0.0000 C   0  0  0  0  0  0  0  0  0  0  0  0
 12 13  1  0
  2  1  1  1
  3  4  1  0
 13 14  2  0
 13 15  1  0
  4  6  1  0
  1 16  1  0
  6  7  1  0
 16 17  2  0
  7  8  1  0
 16 18  1  0
  8  9  1  0
 18 19  2  0
  9  5  1  0
 19 20  1  0
  5  2  1  0
 20 21  2  0
  6 10  1  6
 21 22  1  0
  5  6  1  0
 22 23  2  0
 23 18  1  0
  5 11  1  6
 19 24  1  0
  2  3  1  0
 24 25  1  0
  7 12  1  6
 25 26  2  0
 25 27  1  0
M  CHG  2  13   1  15  -1
M  END

> <chembl_id>
CHEMBL567716

> <chembl_pref_name>
None

$$$$

     RDKit          2D

 32 35  0  0  0  0  0  0  0  0999 V2000
    6.7054  -16.8437    0.0000 C   0  0  0  0  0  0  0  0  0  0  0  0
    6.7231  -17.6709    0.0000 C   0  0  0  0  0  0  0  0  0  0  0  0
    7.4474  -18.0673    0.0000 C   0  0  0  0  0  0  0  0  0  0  0  0
    8.1542  -17.6378    0.0000 C   0  0  0  0  0  0  0  0  0  0  0  0
    8.1324  -16.8073    0.0000 C   0  0  0  0  0  0  0  0  0  0  0  0
    7.4079  -16.4146    0.0000 C   0  0  0  0  0  0  0  0  0  0  0  0
    8.8787  -18.0328    0.0000 C   0  0  0  0  0  0  0  0  0  0  0  0
    8.8988  -18.8577    0.0000 O   0  0  0  0  0  0  0  0  0  0  0  0
    9.5829  -17.6030    0.0000 O   0  0  0  0  0  0  0  0  0  0  0  0
   10.3072  -17.9979    0.0000 C   0  0  0  0  0  0  0  0  0  0  0  0
   10.4115  -18.8144    0.0000 C   0  0  0  0  0  0  0  0  0  0  0  0
   11.2226  -18.9662    0.0000 O   0  0  0  0  0  0  0  0  0  0  0  0
   11.0507  -17.6423    0.0000 C   0  0  0  0  0  0  0  0  0  0  0  0
   11.6136  -18.2423    0.0000 C   0  0  0  0  0  0  0  0  0  0  0  0
   12.3585  -17.8924    0.0000 C   0  0  0  0  0  0  0  0  0  0  0  0
   12.2558  -17.0760    0.0000 C   0  0  0  0  0  0  0  0  0  0  0  0
   11.4475  -16.9216    0.0000 O   0  0  0  0  0  0  0  0  0  0  0  0
   12.2081  -18.8107    0.0000 H   0  0  0  0  0  0  0  0  0  0  0  0
   10.4469  -17.0669    0.0000 H   0  0  0  0  0  0  0  0  0  0  0  0
   13.0812  -18.2902    0.0000 O   0  0  0  0  0  0  0  0  0  0  0  0
    7.4660  -18.8923    0.0000 O   0  0  0  0  0  0  0  0  0  0  0  0
    6.7608  -19.3208    0.0000 C   0  0  0  0  0  0  0  0  0  0  0  0
    6.0372  -18.9245    0.0000 O   0  0  0  0  0  0  0  0  0  0  0  0
   13.7873  -17.8632    0.0000 C   0  0  0  0  0  0  0  0  0  0  0  0
   14.5100  -18.2610    0.0000 C   0  0  0  0  0  0  0  0  0  0  0  0
   13.7705  -17.0384    0.0000 O   0  0  0  0  0  0  0  0  0  0  0  0
   14.5242  -19.0867    0.0000 C   0  0  0  0  0  0  0  0  0  0  0  0
   15.2463  -19.4845    0.0000 C   0  0  0  0  0  0  0  0  0  0  0  0
   15.9532  -19.0574    0.0000 C   0  0  0  0  0  0  0  0  0  0  0  0
   15.9336  -18.2281    0.0000 N   0  0  0  0  0  0  0  0  0  0  0  0
   15.2110  -17.8341    0.0000 C   0  0  0  0  0  0  0  0  0  0  0  0
    6.7794  -20.1458    0.0000 C   0  0  0  0  0  0  0  0  0  0  0  0
  7  8  2  0
 14 15  1  0
 15 16  1  0
 16 17  1  0
 17 13  1  0
 14 18  1  6
  7  9  1  0
 13 19  1  6
  4  5  1  0
 15 20  1  1
 10  9  1  6
  3 21  1  0
 10 11  1  0
 21 22  1  0
  2  3  1  0
 22 23  2  0
  5  6  2  0
 20 24  1  0
 11 12  1  0
 24 25  1  0
 12 14  1  0
 24 26  2  0
 13 10  1  0
 25 27  2  0
 13 14  1  0
 27 28  1  0
  6  1  1  0
 28 29  2  0
  1  2  2  0
 29 30  1  0
  4  7  1  0
 30 31  2  0
 31 25  1  0
  3  4  2  0
 22 32  1  0
M  END

> <chembl_id>
CHEMBL565400

> <chembl_pref_name>
None

$$$$

     RDKit          2D

 33 36  0  0  0  0  0  0  0  0999 V2000
    6.7096   -5.7006    0.0000 C   0  0  0  0  0  0  0  0  0  0  0  0
    6.7273   -6.5278    0.0000 C   0  0  0  0  0  0  0  0  0  0  0  0
    7.4515   -6.9243    0.0000 C   0  0  0  0  0  0  0  0  0  0  0  0
    8.1584   -6.4947    0.0000 C   0  0  0  0  0  0  0  0  0  0  0  0
    8.1366   -5.6645    0.0000 C   0  0  0  0  0  0  0  0  0  0  0  0
    7.4121   -5.2715    0.0000 C   0  0  0  0  0  0  0  0  0  0  0  0
    8.8829   -6.8897    0.0000 C   0  0  0  0  0  0  0  0  0  0  0  0
    8.9030   -7.7146    0.0000 O   0  0  0  0  0  0  0  0  0  0  0  0
    9.5871   -6.4599    0.0000 O   0  0  0  0  0  0  0  0  0  0  0  0
   10.3114   -6.8549    0.0000 C   0  0  0  0  0  0  0  0  0  0  0  0
   10.4157   -7.6713    0.0000 C   0  0  0  0  0  0  0  0  0  0  0  0
   11.2268   -7.8231    0.0000 O   0  0  0  0  0  0  0  0  0  0  0  0
   11.0549   -6.4992    0.0000 C   0  0  0  0  0  0  0  0  0  0  0  0
   11.6178   -7.0992    0.0000 C   0  0  0  0  0  0  0  0  0  0  0  0
   12.3626   -6.7493    0.0000 C   0  0  0  0  0  0  0  0  0  0  0  0
   12.2599   -5.9330    0.0000 C   0  0  0  0  0  0  0  0  0  0  0  0
   11.4517   -5.7785    0.0000 O   0  0  0  0  0  0  0  0  0  0  0  0
   12.2122   -7.6677    0.0000 H   0  0  0  0  0  0  0  0  0  0  0  0
   10.4510   -5.9238    0.0000 H   0  0  0  0  0  0  0  0  0  0  0  0
   13.0854   -7.1472    0.0000 O   0  0  0  0  0  0  0  0  0  0  0  0
    7.4701   -7.7493    0.0000 O   0  0  0  0  0  0  0  0  0  0  0  0
    6.7649   -8.1778    0.0000 C   0  0  0  0  0  0  0  0  0  0  0  0
    6.7835   -9.0028    0.0000 C   0  0  0  0  0  0  0  0  0  0  0  0
    6.0414   -7.7815    0.0000 O   0  0  0  0  0  0  0  0  0  0  0  0
   13.7915   -6.7202    0.0000 C   0  0  0  0  0  0  0  0  0  0  0  0
   14.5142   -7.1180    0.0000 C   0  0  0  0  0  0  0  0  0  0  0  0
   13.7746   -5.8953    0.0000 O   0  0  0  0  0  0  0  0  0  0  0  0
   14.5284   -7.9436    0.0000 C   0  0  0  0  0  0  0  0  0  0  0  0
   15.2505   -8.3414    0.0000 C   0  0  0  0  0  0  0  0  0  0  0  0
   15.9574   -7.9143    0.0000 C   0  0  0  0  0  0  0  0  0  0  0  0
   15.9378   -7.0851    0.0000 C   0  0  0  0  0  0  0  0  0  0  0  0
   15.2152   -6.6911    0.0000 C   0  0  0  0  0  0  0  0  0  0  0  0
   16.6422   -6.6556    0.0000 O   0  0  0  0  0  0  0  0  0  0  0  0
 14 15  1  0
 15 16  1  0
 16 17  1  0
 17 13  1  0
 14 18  1  6
  7  9  1  0
 13 19  1  6
  4  5  1  0
 15 20  1  1
 10  9  1  6
  3 21  1  0
 10 11  1  0
 21 22  1  0
  2  3  1  0
 22 23  1  0
  5  6  2  0
 22 24  2  0
 11 12  1  0
 20 25  1  0
 12 14  1  0
 25 26  1  0
 13 10  1  0
 25 27  2  0
 13 14  1  0
 26 28  2  0
  6  1  1  0
 28 29  1  0
  1  2  2  0
 29 30  2  0
  4  7  1  0
 30 31  1  0
  3  4  2  0
 31 32  2  0
 32 26  1  0
  7  8  2  0
 31 33  1  0
M  END

> <chembl_id>
CHEMBL565619

> <chembl_pref_name>
None

$$$$

     RDKit          2D

 33 36  0  0  0  0  0  0  0  0999 V2000
   10.6428   -1.8874    0.0000 C   0  0  0  0  0  0  0  0  0  0  0  0
   10.6605   -2.7147    0.0000 C   0  0  0  0  0  0  0  0  0  0  0  0
   11.3846   -3.1112    0.0000 C   0  0  0  0  0  0  0  0  0  0  0  0
   12.0915   -2.6816    0.0000 C   0  0  0  0  0  0  0  0  0  0  0  0
   12.0697   -1.8513    0.0000 C   0  0  0  0  0  0  0  0  0  0  0  0
   11.3451   -1.4585    0.0000 C   0  0  0  0  0  0  0  0  0  0  0  0
   12.8158   -3.0766    0.0000 C   0  0  0  0  0  0  0  0  0  0  0  0
   12.8359   -3.9013    0.0000 O   0  0  0  0  0  0  0  0  0  0  0  0
   13.5200   -2.6468    0.0000 O   0  0  0  0  0  0  0  0  0  0  0  0
   14.2444   -3.0418    0.0000 C   0  0  0  0  0  0  0  0  0  0  0  0
   14.3487   -3.8580    0.0000 C   0  0  0  0  0  0  0  0  0  0  0  0
   15.1596   -4.0099    0.0000 O   0  0  0  0  0  0  0  0  0  0  0  0
   14.9877   -2.6861    0.0000 C   0  0  0  0  0  0  0  0  0  0  0  0
   15.5507   -3.2861    0.0000 C   0  0  0  0  0  0  0  0  0  0  0  0
   16.2954   -2.9362    0.0000 C   0  0  0  0  0  0  0  0  0  0  0  0
   16.1927   -2.1198    0.0000 C   0  0  0  0  0  0  0  0  0  0  0  0
   15.3846   -1.9653    0.0000 O   0  0  0  0  0  0  0  0  0  0  0  0
   16.1450   -3.8544    0.0000 H   0  0  0  0  0  0  0  0  0  0  0  0
   14.3839   -2.1106    0.0000 H   0  0  0  0  0  0  0  0  0  0  0  0
   17.0182   -3.3341    0.0000 O   0  0  0  0  0  0  0  0  0  0  0  0
   11.4032   -3.9360    0.0000 O   0  0  0  0  0  0  0  0  0  0  0  0
   10.6982   -4.3646    0.0000 C   0  0  0  0  0  0  0  0  0  0  0  0
   10.7168   -5.1894    0.0000 C   0  0  0  0  0  0  0  0  0  0  0  0
    9.9745   -3.9682    0.0000 O   0  0  0  0  0  0  0  0  0  0  0  0
   17.7241   -2.9071    0.0000 C   0  0  0  0  0  0  0  0  0  0  0  0
   18.4469   -3.3049    0.0000 C   0  0  0  0  0  0  0  0  0  0  0  0
   17.7073   -2.0821    0.0000 O   0  0  0  0  0  0  0  0  0  0  0  0
   18.4611   -4.1304    0.0000 C   0  0  0  0  0  0  0  0  0  0  0  0
   19.1830   -4.5282    0.0000 C   0  0  0  0  0  0  0  0  0  0  0  0
   19.8899   -4.1011    0.0000 C   0  0  0  0  0  0  0  0  0  0  0  0
   19.8703   -3.2720    0.0000 C   0  0  0  0  0  0  0  0  0  0  0  0
   19.1479   -2.8780    0.0000 C   0  0  0  0  0  0  0  0  0  0  0  0
   20.6133   -4.4980    0.0000 O   0  0  0  0  0  0  0  0  0  0  0  0
 14 15  1  0
 15 16  1  0
 16 17  1  0
 17 13  1  0
 14 18  1  6
  7  9  1  0
 13 19  1  6
  4  5  1  0
 15 20  1  1
 10  9  1  6
  3 21  1  0
 10 11  1  0
 21 22  1  0
  2  3  1  0
 22 23  1  0
  5  6  2  0
 22 24  2  0
 11 12  1  0
 20 25  1  0
 12 14  1  0
 25 26  1  0
 13 10  1  0
 25 27  2  0
 13 14  1  0
 26 28  2  0
  6  1  1  0
 28 29  1  0
  1  2  2  0
 29 30  2  0
  4  7  1  0
 30 31  1  0
  3  4  2  0
 31 32  2  0
 32 26  1  0
  7  8  2  0
 30 33  1  0
M  END

> <chembl_id>
CHEMBL568344

> <chembl_pref_name>
None

$$$$

     RDKit          2D

 27 29  0  0  0  0  0  0  0  0999 V2000
   -4.4745  -10.6123    0.0000 C   0  0  0  0  0  0  0  0  0  0  0  0
   -4.4568  -11.4395    0.0000 C   0  0  0  0  0  0  0  0  0  0  0  0
   -3.7328  -11.8360    0.0000 C   0  0  0  0  0  0  0  0  0  0  0  0
   -3.0260  -11.4064    0.0000 C   0  0  0  0  0  0  0  0  0  0  0  0
   -3.0477  -10.5762    0.0000 C   0  0  0  0  0  0  0  0  0  0  0  0
   -3.7723  -10.1834    0.0000 C   0  0  0  0  0  0  0  0  0  0  0  0
   -2.3017  -11.8014    0.0000 C   0  0  0  0  0  0  0  0  0  0  0  0
   -2.2816  -12.6261    0.0000 O   0  0  0  0  0  0  0  0  0  0  0  0
   -1.5974  -11.3716    0.0000 O   0  0  0  0  0  0  0  0  0  0  0  0
   -0.8731  -11.7666    0.0000 C   0  0  0  0  0  0  0  0  0  0  0  0
   -0.7689  -12.5828    0.0000 C   0  0  0  0  0  0  0  0  0  0  0  0
    0.0420  -12.7346    0.0000 O   0  0  0  0  0  0  0  0  0  0  0  0
   -0.1298  -11.4109    0.0000 C   0  0  0  0  0  0  0  0  0  0  0  0
    0.4331  -12.0109    0.0000 C   0  0  0  0  0  0  0  0  0  0  0  0
    1.1777  -11.6610    0.0000 C   0  0  0  0  0  0  0  0  0  0  0  0
    1.0750  -10.8447    0.0000 C   0  0  0  0  0  0  0  0  0  0  0  0
    0.2669  -10.6902    0.0000 O   0  0  0  0  0  0  0  0  0  0  0  0
    1.0273  -12.5792    0.0000 H   0  0  0  0  0  0  0  0  0  0  0  0
   -0.7337  -10.8355    0.0000 H   0  0  0  0  0  0  0  0  0  0  0  0
    1.9004  -12.0589    0.0000 O   0  0  0  0  0  0  0  0  0  0  0  0
   -3.7142  -12.6608    0.0000 O   0  0  0  0  0  0  0  0  0  0  0  0
   -4.4192  -13.0893    0.0000 C   0  0  0  0  0  0  0  0  0  0  0  0
   -4.4006  -13.9141    0.0000 C   0  0  0  0  0  0  0  0  0  0  0  0
   -5.1428  -12.6930    0.0000 O   0  0  0  0  0  0  0  0  0  0  0  0
    2.6063  -11.6319    0.0000 C   0  0  0  0  0  0  0  0  0  0  0  0
    3.3291  -12.0297    0.0000 C   0  0  0  0  0  0  0  0  0  0  0  0
    2.5895  -10.8070    0.0000 O   0  0  0  0  0  0  0  0  0  0  0  0
 13 14  1  0
  6  1  1  0
  1  2  2  0
  4  7  1  0
  3  4  2  0
  7  8  2  0
 14 15  1  0
 15 16  1  0
 16 17  1  0
 17 13  1  0
 14 18  1  6
  7  9  1  0
 13 19  1  6
  4  5  1  0
 15 20  1  1
 10  9  1  6
  3 21  1  0
 10 11  1  0
 21 22  1  0
  2  3  1  0
 22 23  1  0
  5  6  2  0
 22 24  2  0
 11 12  1  0
 20 25  1  0
 12 14  1  0
 25 26  1  0
 13 10  1  0
 25 27  2  0
M  END

> <chembl_id>
CHEMBL568554

> <chembl_pref_name>
None

$$$$

     RDKit          2D

 32 35  0  0  0  0  0  0  0  0999 V2000
   -4.1295  -19.5615    0.0000 C   0  0  0  0  0  0  0  0  0  0  0  0
   -4.1118  -20.3889    0.0000 C   0  0  0  0  0  0  0  0  0  0  0  0
   -3.3876  -20.7854    0.0000 C   0  0  0  0  0  0  0  0  0  0  0  0
   -2.6805  -20.3558    0.0000 C   0  0  0  0  0  0  0  0  0  0  0  0
   -2.7023  -19.5254    0.0000 C   0  0  0  0  0  0  0  0  0  0  0  0
   -3.4270  -19.1327    0.0000 C   0  0  0  0  0  0  0  0  0  0  0  0
   -1.9562  -20.7508    0.0000 C   0  0  0  0  0  0  0  0  0  0  0  0
   -1.9361  -21.5758    0.0000 O   0  0  0  0  0  0  0  0  0  0  0  0
   -1.2518  -20.3210    0.0000 O   0  0  0  0  0  0  0  0  0  0  0  0
   -0.5273  -20.7160    0.0000 C   0  0  0  0  0  0  0  0  0  0  0  0
   -0.4230  -21.5325    0.0000 C   0  0  0  0  0  0  0  0  0  0  0  0
    0.3879  -21.6843    0.0000 O   0  0  0  0  0  0  0  0  0  0  0  0
    0.2160  -20.3604    0.0000 C   0  0  0  0  0  0  0  0  0  0  0  0
    0.7791  -20.9604    0.0000 C   0  0  0  0  0  0  0  0  0  0  0  0
    1.5237  -20.6105    0.0000 C   0  0  0  0  0  0  0  0  0  0  0  0
    1.4210  -19.7939    0.0000 C   0  0  0  0  0  0  0  0  0  0  0  0
    0.6130  -19.6395    0.0000 O   0  0  0  0  0  0  0  0  0  0  0  0
    1.3733  -21.5288    0.0000 H   0  0  0  0  0  0  0  0  0  0  0  0
   -0.3879  -19.7847    0.0000 H   0  0  0  0  0  0  0  0  0  0  0  0
    2.2467  -21.0083    0.0000 O   0  0  0  0  0  0  0  0  0  0  0  0
   -3.3690  -21.6104    0.0000 O   0  0  0  0  0  0  0  0  0  0  0  0
   -4.0742  -22.0389    0.0000 C   0  0  0  0  0  0  0  0  0  0  0  0
   -4.7977  -21.6426    0.0000 O   0  0  0  0  0  0  0  0  0  0  0  0
    2.9528  -20.5813    0.0000 C   0  0  0  0  0  0  0  0  0  0  0  0
    3.6755  -20.9791    0.0000 C   0  0  0  0  0  0  0  0  0  0  0  0
    2.9359  -19.7563    0.0000 O   0  0  0  0  0  0  0  0  0  0  0  0
    3.6897  -21.8048    0.0000 C   0  0  0  0  0  0  0  0  0  0  0  0
    4.4118  -22.2025    0.0000 C   0  0  0  0  0  0  0  0  0  0  0  0
    5.1187  -21.7754    0.0000 N   0  0  0  0  0  0  0  0  0  0  0  0
    5.0991  -20.9462    0.0000 C   0  0  0  0  0  0  0  0  0  0  0  0
    4.3767  -20.5522    0.0000 C   0  0  0  0  0  0  0  0  0  0  0  0
   -4.0556  -22.8639    0.0000 C   0  0  0  0  0  0  0  0  0  0  0  0
  7  8  2  0
 14 15  1  0
 15 16  1  0
 16 17  1  0
 17 13  1  0
 14 18  1  6
  7  9  1  0
 13 19  1  6
  4  5  1  0
 15 20  1  1
 10  9  1  6
  3 21  1  0
 10 11  1  0
 21 22  1  0
  2  3  1  0
 22 23  2  0
  5  6  2  0
 20 24  1  0
 11 12  1  0
 24 25  1  0
 12 14  1  0
 24 26  2  0
 13 10  1  0
 25 27  2  0
 13 14  1  0
 27 28  1  0
  6  1  1  0
 28 29  2  0
  1  2  2  0
 29 30  1  0
  4  7  1  0
 30 31  2  0
 31 25  1  0
  3  4  2  0
 22 32  1  0
M  END

> <chembl_id>
CHEMBL567917

> <chembl_pref_name>
None

$$$$

     RDKit          2D

 28 30  0  0  0  0  0  0  0  0999 V2000
    6.5213  -10.6456    0.0000 C   0  0  0  0  0  0  0  0  0  0  0  0
    6.5390  -11.4728    0.0000 C   0  0  0  0  0  0  0  0  0  0  0  0
    7.2630  -11.8693    0.0000 C   0  0  0  0  0  0  0  0  0  0  0  0
    7.9699  -11.4397    0.0000 C   0  0  0  0  0  0  0  0  0  0  0  0
    7.9481  -10.6095    0.0000 C   0  0  0  0  0  0  0  0  0  0  0  0
    7.2236  -10.2168    0.0000 C   0  0  0  0  0  0  0  0  0  0  0  0
    8.6942  -11.8347    0.0000 C   0  0  0  0  0  0  0  0  0  0  0  0
    8.7143  -12.6595    0.0000 O   0  0  0  0  0  0  0  0  0  0  0  0
    9.3984  -11.4049    0.0000 O   0  0  0  0  0  0  0  0  0  0  0  0
   10.1227  -11.7999    0.0000 C   0  0  0  0  0  0  0  0  0  0  0  0
   10.2270  -12.6162    0.0000 C   0  0  0  0  0  0  0  0  0  0  0  0
   11.0379  -12.7680    0.0000 O   0  0  0  0  0  0  0  0  0  0  0  0
   10.8660  -11.4443    0.0000 C   0  0  0  0  0  0  0  0  0  0  0  0
   11.4289  -12.0443    0.0000 C   0  0  0  0  0  0  0  0  0  0  0  0
   12.1735  -11.6944    0.0000 C   0  0  0  0  0  0  0  0  0  0  0  0
   12.0708  -10.8780    0.0000 C   0  0  0  0  0  0  0  0  0  0  0  0
   11.2628  -10.7236    0.0000 O   0  0  0  0  0  0  0  0  0  0  0  0
   12.0231  -12.6125    0.0000 H   0  0  0  0  0  0  0  0  0  0  0  0
   10.2621  -10.8688    0.0000 H   0  0  0  0  0  0  0  0  0  0  0  0
   12.8963  -12.0922    0.0000 O   0  0  0  0  0  0  0  0  0  0  0  0
    7.2816  -12.6941    0.0000 O   0  0  0  0  0  0  0  0  0  0  0  0
    6.5766  -13.1226    0.0000 C   0  0  0  0  0  0  0  0  0  0  0  0
    6.5952  -13.9474    0.0000 C   0  0  0  0  0  0  0  0  0  0  0  0
    5.8531  -12.7263    0.0000 O   0  0  0  0  0  0  0  0  0  0  0  0
   13.6022  -11.6652    0.0000 C   0  0  0  0  0  0  0  0  0  0  0  0
   14.3249  -12.0630    0.0000 C   0  0  0  0  0  0  0  0  0  0  0  0
   13.5853  -10.8404    0.0000 O   0  0  0  0  0  0  0  0  0  0  0  0
   15.0308  -11.6360    0.0000 C   0  0  0  0  0  0  0  0  0  0  0  0
  6  1  1  0
  1  2  2  0
  4  7  1  0
  3  4  2  0
  7  8  2  0
 14 15  1  0
 15 16  1  0
 16 17  1  0
 17 13  1  0
 14 18  1  6
  7  9  1  0
 13 19  1  6
  4  5  1  0
 15 20  1  1
 10  9  1  6
  3 21  1  0
 10 11  1  0
 21 22  1  0
  2  3  1  0
 22 23  1  0
  5  6  2  0
 22 24  2  0
 11 12  1  0
 20 25  1  0
 12 14  1  0
 25 26  1  0
 13 10  1  0
 25 27  2  0
 13 14  1  0
 26 28  1  0
M  END

> <chembl_id>
CHEMBL584911

> <chembl_pref_name>
None

$$$$

     RDKit          2D

 30 32  0  0  0  0  0  0  0  0999 V2000
   -4.2245  -14.6748    0.0000 C   0  0  0  0  0  0  0  0  0  0  0  0
   -4.2068  -15.5020    0.0000 C   0  0  0  0  0  0  0  0  0  0  0  0
   -3.4828  -15.8985    0.0000 C   0  0  0  0  0  0  0  0  0  0  0  0
   -2.7760  -15.4689    0.0000 C   0  0  0  0  0  0  0  0  0  0  0  0
   -2.7977  -14.6387    0.0000 C   0  0  0  0  0  0  0  0  0  0  0  0
   -3.5223  -14.2459    0.0000 C   0  0  0  0  0  0  0  0  0  0  0  0
   -2.0517  -15.8639    0.0000 C   0  0  0  0  0  0  0  0  0  0  0  0
   -2.0316  -16.6886    0.0000 O   0  0  0  0  0  0  0  0  0  0  0  0
   -1.3474  -15.4341    0.0000 O   0  0  0  0  0  0  0  0  0  0  0  0
   -0.6231  -15.8291    0.0000 C   0  0  0  0  0  0  0  0  0  0  0  0
   -0.5189  -16.6453    0.0000 C   0  0  0  0  0  0  0  0  0  0  0  0
    0.2920  -16.7971    0.0000 O   0  0  0  0  0  0  0  0  0  0  0  0
    0.1202  -15.4734    0.0000 C   0  0  0  0  0  0  0  0  0  0  0  0
    0.6831  -16.0734    0.0000 C   0  0  0  0  0  0  0  0  0  0  0  0
    1.4277  -15.7235    0.0000 C   0  0  0  0  0  0  0  0  0  0  0  0
    1.3250  -14.9072    0.0000 C   0  0  0  0  0  0  0  0  0  0  0  0
    0.5169  -14.7527    0.0000 O   0  0  0  0  0  0  0  0  0  0  0  0
    1.2773  -16.6417    0.0000 H   0  0  0  0  0  0  0  0  0  0  0  0
   -0.4837  -14.8980    0.0000 H   0  0  0  0  0  0  0  0  0  0  0  0
    2.1504  -16.1214    0.0000 O   0  0  0  0  0  0  0  0  0  0  0  0
   -3.4642  -16.7233    0.0000 O   0  0  0  0  0  0  0  0  0  0  0  0
   -4.1692  -17.1518    0.0000 C   0  0  0  0  0  0  0  0  0  0  0  0
   -4.1506  -17.9766    0.0000 C   0  0  0  0  0  0  0  0  0  0  0  0
   -4.8928  -16.7555    0.0000 O   0  0  0  0  0  0  0  0  0  0  0  0
    2.8563  -15.6944    0.0000 C   0  0  0  0  0  0  0  0  0  0  0  0
    3.5791  -16.0922    0.0000 C   0  0  0  0  0  0  0  0  0  0  0  0
    2.8395  -14.8695    0.0000 O   0  0  0  0  0  0  0  0  0  0  0  0
    4.2850  -15.6652    0.0000 C   0  0  0  0  0  0  0  0  0  0  0  0
    5.0077  -16.0630    0.0000 C   0  0  0  0  0  0  0  0  0  0  0  0
    5.7136  -15.6360    0.0000 C   0  0  0  0  0  0  0  0  0  0  0  0
  4  7  1  0
  3  4  2  0
  7  8  2  0
 14 15  1  0
 15 16  1  0
 16 17  1  0
 17 13  1  0
 14 18  1  6
  7  9  1  0
 13 19  1  6
  4  5  1  0
 15 20  1  1
 10  9  1  6
  3 21  1  0
 10 11  1  0
 21 22  1  0
  2  3  1  0
 22 23  1  0
  5  6  2  0
 22 24  2  0
 11 12  1  0
 20 25  1  0
 12 14  1  0
 25 26  1  0
 13 10  1  0
 25 27  2  0
 13 14  1  0
 26 28  1  0
  6  1  1  0
 28 29  1  0
  1  2  2  0
 29 30  1  0
M  END

> <chembl_id>
CHEMBL585850

> <chembl_pref_name>
None

$$$$
