
     RDKit          2D

 80 82  0  0  0  0  0  0  0  0999 V2000
    1.0826  -16.8108    0.0000 C   0  0  0  0  0  0  0  0  0  0  0  0
   -1.5534  -15.5293    0.0000 C   0  0  0  0  0  0  0  0  0  0  0  0
   -2.9806  -15.5389    0.0000 C   0  0  0  0  0  0  0  0  0  0  0  0
   -3.6942  -13.4855    0.0000 C   0  0  0  0  0  0  0  0  0  0  0  0
   -2.2670  -15.9467    0.0000 C   0  0  0  0  0  0  0  0  0  0  0  0
    0.6748  -17.5244    0.0000 C   0  0  0  0  0  0  0  0  0  0  0  0
   -0.8398  -14.3059    0.0000 C   0  0  0  0  0  0  0  0  0  0  0  0
   -1.5534  -14.7137    0.0000 C   0  0  0  0  0  0  0  0  0  0  0  0
   -2.9806  -12.2622    0.0000 C   0  0  0  0  0  0  0  0  0  0  0  0
   -2.9806  -14.7137    0.0000 O   0  0  0  0  0  0  0  0  0  0  0  0
   -2.9806  -13.0826    0.0000 C   0  0  0  0  0  0  0  0  0  0  0  0
   -2.2670  -11.8448    0.0000 C   0  0  0  0  0  0  0  0  0  0  0  0
    1.0777  -15.7137    0.0000 O   0  0  0  0  0  0  0  0  0  0  0  0
   -3.1699  -19.1264    0.0000 C   0  0  0  0  0  0  0  0  0  0  0  0
   -0.1553  -17.5244    0.0000 C   0  0  0  0  0  0  0  0  0  0  0  0
   -0.8398  -13.4855    0.0000 C   0  0  0  0  0  0  0  0  0  0  0  0
   -1.9369  -18.4128    0.0000 C   0  0  0  0  0  0  0  0  0  0  0  0
   -2.3447  -19.1264    0.0000 C   0  0  0  0  0  0  0  0  0  0  0  0
    0.6748  -16.0972    0.0000 O   0  0  0  0  0  0  0  0  0  0  0  0
   -2.3447  -17.6992    0.0000 O   0  0  0  0  0  0  0  0  0  0  0  0
   -3.6942  -14.3059    0.0000 C   0  0  0  0  0  0  0  0  0  0  0  0
   -3.5874  -18.4128    0.0000 C   0  0  0  0  0  0  0  0  0  0  0  0
   -0.8398  -15.9418    0.0000 O   0  0  0  0  0  0  0  0  0  0  0  0
   -3.1699  -17.6992    0.0000 C   0  0  0  0  0  0  0  0  0  0  0  0
   -1.5534  -12.2525    0.0000 C   0  0  0  0  0  0  0  0  0  0  0  0
   -1.5534  -13.0777    0.0000 C   0  0  0  0  0  0  0  0  0  0  0  0
   -0.5680  -16.8108    0.0000 C   0  0  0  0  0  0  0  0  0  0  0  0
   -0.5631  -18.2380    0.0000 N   0  0  0  0  0  0  0  0  0  0  0  0
   -3.6942  -15.9516    0.0000 O   0  0  0  0  0  0  0  0  0  0  0  0
   -0.1553  -16.0972    0.0000 C   0  0  0  0  0  0  0  0  0  0  0  0
   -2.2719  -11.0243    0.0000 O   0  0  0  0  0  0  0  0  0  0  0  0
   -4.1068  -12.7622    0.0000 O   0  0  0  0  0  0  0  0  0  0  0  0
    1.0826  -18.2380    0.0000 O   0  0  0  0  0  0  0  0  0  0  0  0
   -0.4320  -12.7622    0.0000 O   0  0  0  0  0  0  0  0  0  0  0  0
   -2.2670  -13.4952    0.0000 O   0  0  0  0  0  0  0  0  0  0  0  0
   -3.8884  -19.5341    0.0000 O   0  0  0  0  0  0  0  0  0  0  0  0
   -4.4126  -18.4128    0.0000 O   0  0  0  0  0  0  0  0  0  0  0  0
   -4.5146  -13.4855    0.0000 C   0  0  0  0  0  0  0  0  0  0  0  0
   -2.2622  -16.7671    0.0000 C   0  0  0  0  0  0  0  0  0  0  0  0
   -2.2719  -14.2962    0.0000 C   0  0  0  0  0  0  0  0  0  0  0  0
   -3.6942  -11.8495    0.0000 C   0  0  0  0  0  0  0  0  0  0  0  0
   -3.1748  -19.9516    0.0000 C   0  0  0  0  0  0  0  0  0  0  0  0
   -0.0146  -13.4855    0.0000 C   0  0  0  0  0  0  0  0  0  0  0  0
   -4.4078  -14.7234    0.0000 C   0  0  0  0  0  0  0  0  0  0  0  0
   -3.5825  -16.9807    0.0000 C   0  0  0  0  0  0  0  0  0  0  0  0
   -0.8398  -11.8399    0.0000 C   0  0  0  0  0  0  0  0  0  0  0  0
   -0.1505  -18.9516    0.0000 C   0  0  0  0  0  0  0  0  0  0  0  0
   -1.3884  -18.2380    0.0000 C   0  0  0  0  0  0  0  0  0  0  0  0
   -0.5631  -15.3787    0.0000 C   0  0  0  0  0  0  0  0  0  0  0  0
   -4.6020  -19.1118    0.0000 C   0  0  0  0  0  0  0  0  0  0  0  0
   -5.1214  -14.3107    0.0000 C   0  0  0  0  0  0  0  0  0  0  0  0
    1.7962  -17.2186    0.0000 H   0  0  0  0  0  0  0  0  0  0  0  0
   -0.0146  -14.3059    0.0000 H   0  0  0  0  0  0  0  0  0  0  0  0
   -1.2233  -18.8205    0.0000 H   0  0  0  0  0  0  0  0  0  0  0  0
    5.7088  -16.3933    0.0000 C   0  0  0  0  0  0  0  0  0  0  0  0
    5.3010  -17.1021    0.0000 C   0  0  0  0  0  0  0  0  0  0  0  0
    4.4758  -17.1021    0.0000 C   0  0  0  0  0  0  0  0  0  0  0  0
    7.1409  -16.3787    0.0000 C   0  0  0  0  0  0  0  0  0  0  0  0
    5.3010  -15.6797    0.0000 O   0  0  0  0  0  0  0  0  0  0  0  0
    7.8496  -15.9564    0.0000 C   0  0  0  0  0  0  0  0  0  0  0  0
    8.5681  -16.3641    0.0000 C   0  0  0  0  0  0  0  0  0  0  0  0
    6.4224  -15.9758    0.0000 O   0  0  0  0  0  0  0  0  0  0  0  0
    4.0582  -16.3933    0.0000 C   0  0  0  0  0  0  0  0  0  0  0  0
    4.4758  -15.6797    0.0000 C   0  0  0  0  0  0  0  0  0  0  0  0
    9.2768  -15.9418    0.0000 C   0  0  0  0  0  0  0  0  0  0  0  0
    7.1456  -17.2040    0.0000 C   0  0  0  0  0  0  0  0  0  0  0  0
    9.2719  -15.1166    0.0000 O   0  0  0  0  0  0  0  0  0  0  0  0
    5.7137  -17.8205    0.0000 O   0  0  0  0  0  0  0  0  0  0  0  0
    4.0631  -17.8205    0.0000 O   0  0  0  0  0  0  0  0  0  0  0  0
    8.5777  -17.1895    0.0000 O   0  0  0  0  0  0  0  0  0  0  0  0
    7.8399  -15.1312    0.0000 O   0  0  0  0  0  0  0  0  0  0  0  0
    3.2330  -16.3933    0.0000 O   0  0  0  0  0  0  0  0  0  0  0  0
    9.9952  -16.3496    0.0000 O   0  0  0  0  0  0  0  0  0  0  0  0
    6.4369  -17.6215    0.0000 O   0  0  0  0  0  0  0  0  0  0  0  0
    4.0631  -14.9613    0.0000 C   0  0  0  0  0  0  0  0  0  0  0  0
    3.2379  -14.9613    0.0000 O   0  0  0  0  0  0  0  0  0  0  0  0
    7.8738  -18.4321    0.0000 O   0  0  0  0  0  0  0  0  0  0  0  0
    7.8641  -17.6069    0.0000 C   0  0  0  0  0  0  0  0  0  0  0  0
    7.8545  -16.7914    0.0000 H   0  0  0  0  0  0  0  0  0  0  0  0
    6.4224  -16.8059    0.0000 H   0  0  0  0  0  0  0  0  0  0  0  0
  2  8  1  0
  3  5  1  0
  4 21  1  0
  5  2  1  0
  6  1  1  0
  7 13  1  0
  8  7  1  0
  9 12  1  0
 10  3  1  0
 11  9  1  0
 12 25  1  0
 13  1  1  0
 14 18  1  0
 15  6  1  0
 16  7  1  0
 17 23  1  0
 18 17  1  0
 19  1  1  0
 20 17  1  0
 21 10  1  0
 22 24  1  0
  2 23  1  6
 24 20  1  0
 25 26  1  0
 26 16  1  0
 27 30  1  0
 15 28  1  1
 29  3  2  0
 30 19  1  0
 31 12  2  0
  4 32  1  1
  6 33  1  6
 16 34  1  1
 11 35  1  1
 14 36  1  1
 22 37  1  1
 38  4  1  0
  5 39  1  1
  8 40  1  6
  9 41  1  1
 42 14  1  0
 43 16  1  0
 21 44  1  6
 24 45  1  6
 25 46  1  6
 47 28  1  0
 48 28  1  0
 30 49  1  1
 50 36  1  0
 51 44  1  0
  1 52  1  6
  7 53  1  1
 17 54  1  6
 27 15  1  0
  4 11  1  0
 22 14  1  0
 56 55  1  0
 57 56  1  0
 58 62  1  0
 59 55  1  0
 60 58  1  0
 61 60  1  0
 62 55  1  0
 63 64  1  0
 64 59  1  0
 65 61  1  0
 66 58  1  0
 67 65  2  0
 56 68  1  6
 57 69  1  1
 61 70  1  6
 60 71  1  6
 63 72  1  1
 73 65  1  0
 66 74  1  1
 64 75  1  1
 76 75  1  0
 77 78  1  0
 78 66  1  0
 58 79  1  6
 55 80  1  6
 63 57  1  0
M  END

> <chembl_id>
CHEMBL1200506

> <chembl_pref_name>
ERYTHROMYCIN LACTOBIONATE

$$$$

     RDKit          2D

 74 75  0  0  0  0  0  0  0  0999 V2000
    2.9375  -13.0792    0.0000 C   0  0  0  0  0  0  0  0  0  0  0  0
    2.9375  -12.3750    0.0000 O   0  0  0  0  0  0  0  0  0  0  0  0
    2.3250  -13.4375    0.0000 O   0  0  0  0  0  0  0  0  0  0  0  0
    3.5542  -13.4375    0.0000 C   0  0  0  0  0  0  0  0  0  0  0  0
    4.1667  -13.0792    0.0000 C   0  0  0  0  0  0  0  0  0  0  0  0
    4.7750  -14.1417    0.0000 C   0  0  0  0  0  0  0  0  0  0  0  0
    5.3917  -14.4958    0.0000 C   0  0  0  0  0  0  0  0  0  0  0  0
    6.0042  -13.4292    0.0000 C   0  0  0  0  0  0  0  0  0  0  0  0
    6.6167  -13.0750    0.0000 C   0  0  0  0  0  0  0  0  0  0  0  0
    7.2292  -13.4292    0.0000 C   0  0  0  0  0  0  0  0  0  0  0  0
    7.8417  -13.0708    0.0000 C   0  0  0  0  0  0  0  0  0  0  0  0
    8.4542  -13.4250    0.0000 C   0  0  0  0  0  0  0  0  0  0  0  0
    8.4583  -14.1333    0.0000 C   0  0  0  0  0  0  0  0  0  0  0  0
    7.8458  -14.4875    0.0000 C   0  0  0  0  0  0  0  0  0  0  0  0
    7.2292  -14.1375    0.0000 C   0  0  0  0  0  0  0  0  0  0  0  0
    6.6167  -14.4917    0.0000 C   0  0  0  0  0  0  0  0  0  0  0  0
    6.0042  -14.1417    0.0000 C   0  0  0  0  0  0  0  0  0  0  0  0
    4.7792  -13.4375    0.0000 C   0  0  0  0  0  0  0  0  0  0  0  0
    5.3917  -13.0792    0.0000 C   0  0  0  0  0  0  0  0  0  0  0  0
    4.1625  -14.5000    0.0000 C   0  0  0  0  0  0  0  0  0  0  0  0
    0.9292  -14.4292    0.0000 C   0  0  0  0  0  0  0  0  0  0  0  0
   -1.3333  -13.3292    0.0000 C   0  0  0  0  0  0  0  0  0  0  0  0
   -2.5583  -13.3375    0.0000 C   0  0  0  0  0  0  0  0  0  0  0  0
   -3.1708  -11.5750    0.0000 C   0  0  0  0  0  0  0  0  0  0  0  0
   -1.9458  -13.6875    0.0000 C   0  0  0  0  0  0  0  0  0  0  0  0
    0.5792  -15.0417    0.0000 C   0  0  0  0  0  0  0  0  0  0  0  0
   -0.7208  -12.2792    0.0000 C   0  0  0  0  0  0  0  0  0  0  0  0
   -1.3333  -12.6292    0.0000 C   0  0  0  0  0  0  0  0  0  0  0  0
   -2.5583  -10.5250    0.0000 C   0  0  0  0  0  0  0  0  0  0  0  0
   -2.5583  -12.6292    0.0000 O   0  0  0  0  0  0  0  0  0  0  0  0
   -2.5583  -11.2292    0.0000 C   0  0  0  0  0  0  0  0  0  0  0  0
   -1.9458  -10.1667    0.0000 C   0  0  0  0  0  0  0  0  0  0  0  0
    0.9250  -13.4875    0.0000 O   0  0  0  0  0  0  0  0  0  0  0  0
   -2.7208  -16.4167    0.0000 C   0  0  0  0  0  0  0  0  0  0  0  0
   -0.1333  -15.0417    0.0000 C   0  0  0  0  0  0  0  0  0  0  0  0
   -0.7208  -11.5750    0.0000 C   0  0  0  0  0  0  0  0  0  0  0  0
   -1.6625  -15.8042    0.0000 C   0  0  0  0  0  0  0  0  0  0  0  0
   -2.0125  -16.4167    0.0000 C   0  0  0  0  0  0  0  0  0  0  0  0
    0.5792  -13.8167    0.0000 O   0  0  0  0  0  0  0  0  0  0  0  0
   -2.0125  -15.1917    0.0000 O   0  0  0  0  0  0  0  0  0  0  0  0
   -3.1708  -12.2792    0.0000 C   0  0  0  0  0  0  0  0  0  0  0  0
   -3.0792  -15.8042    0.0000 C   0  0  0  0  0  0  0  0  0  0  0  0
   -0.7208  -13.6833    0.0000 O   0  0  0  0  0  0  0  0  0  0  0  0
   -2.7208  -15.1917    0.0000 C   0  0  0  0  0  0  0  0  0  0  0  0
   -1.3333  -10.5167    0.0000 C   0  0  0  0  0  0  0  0  0  0  0  0
   -1.3333  -11.2250    0.0000 C   0  0  0  0  0  0  0  0  0  0  0  0
   -0.4875  -14.4292    0.0000 C   0  0  0  0  0  0  0  0  0  0  0  0
   -0.4833  -15.6542    0.0000 N   0  0  0  0  0  0  0  0  0  0  0  0
   -3.1708  -13.6917    0.0000 O   0  0  0  0  0  0  0  0  0  0  0  0
   -0.1333  -13.8167    0.0000 C   0  0  0  0  0  0  0  0  0  0  0  0
   -1.9500   -9.4625    0.0000 O   0  0  0  0  0  0  0  0  0  0  0  0
   -3.5250  -10.9542    0.0000 O   0  0  0  0  0  0  0  0  0  0  0  0
    0.9292  -15.6542    0.0000 O   0  0  0  0  0  0  0  0  0  0  0  0
   -0.3708  -10.9542    0.0000 O   0  0  0  0  0  0  0  0  0  0  0  0
   -1.9458  -11.5833    0.0000 O   0  0  0  0  0  0  0  0  0  0  0  0
   -3.3375  -16.7667    0.0000 O   0  0  0  0  0  0  0  0  0  0  0  0
   -3.7875  -15.8042    0.0000 O   0  0  0  0  0  0  0  0  0  0  0  0
   -3.8750  -11.5750    0.0000 C   0  0  0  0  0  0  0  0  0  0  0  0
   -1.9417  -14.3917    0.0000 C   0  0  0  0  0  0  0  0  0  0  0  0
   -1.9500  -12.2708    0.0000 C   0  0  0  0  0  0  0  0  0  0  0  0
   -3.1708  -10.1708    0.0000 C   0  0  0  0  0  0  0  0  0  0  0  0
   -2.7250  -17.1250    0.0000 C   0  0  0  0  0  0  0  0  0  0  0  0
   -0.0125  -11.5750    0.0000 C   0  0  0  0  0  0  0  0  0  0  0  0
   -3.7833  -12.6375    0.0000 C   0  0  0  0  0  0  0  0  0  0  0  0
   -3.0750  -14.5750    0.0000 C   0  0  0  0  0  0  0  0  0  0  0  0
   -0.7208  -10.1625    0.0000 C   0  0  0  0  0  0  0  0  0  0  0  0
   -0.1292  -16.2667    0.0000 C   0  0  0  0  0  0  0  0  0  0  0  0
   -1.1917  -15.6542    0.0000 C   0  0  0  0  0  0  0  0  0  0  0  0
   -0.4833  -13.2000    0.0000 C   0  0  0  0  0  0  0  0  0  0  0  0
   -3.9500  -16.4042    0.0000 C   0  0  0  0  0  0  0  0  0  0  0  0
   -4.3958  -12.2833    0.0000 C   0  0  0  0  0  0  0  0  0  0  0  0
   -1.0500  -16.1542    0.0000 H   0  0  0  0  0  0  0  0  0  0  0  0
    1.5417  -14.7792    0.0000 H   0  0  0  0  0  0  0  0  0  0  0  0
   -0.0125  -12.2792    0.0000 H   0  0  0  0  0  0  0  0  0  0  0  0
  2  1  2  0
  3  1  1  0
  4  1  1  0
  5  4  1  0
  6  7  1  0
  7 17  1  0
  8 19  1  0
  9  8  1  0
 10  9  1  0
 11 10  1  0
 12 11  1  0
 13 12  1  0
 14 13  1  0
 15 14  1  0
 16 15  1  0
 17 16  1  0
 18  5  1  0
 19 18  1  0
 20  6  1  0
 22 28  1  0
 23 25  1  0
 24 31  1  0
 25 22  1  0
 26 21  1  0
 27 33  1  0
 28 27  1  0
 29 32  1  0
 30 23  1  0
 31 29  1  0
 32 45  1  0
 33 21  1  0
 34 38  1  0
 35 26  1  0
 36 27  1  0
 37 43  1  0
 38 37  1  0
 39 21  1  0
 40 37  1  0
 41 30  1  0
 42 44  1  0
 22 43  1  6
 44 40  1  0
 45 46  1  0
 46 36  1  0
 47 50  1  0
 35 48  1  1
 49 23  2  0
 50 39  1  0
 51 32  2  0
 24 52  1  1
 26 53  1  6
 36 54  1  1
 31 55  1  1
 34 56  1  1
 42 57  1  1
 58 24  1  0
 25 59  1  1
 28 60  1  6
 29 61  1  1
 62 34  1  0
 63 36  1  0
 41 64  1  6
 44 65  1  6
 45 66  1  6
 67 48  1  0
 68 48  1  0
 50 69  1  1
 70 56  1  0
 71 64  1  0
 37 72  1  6
 21 73  1  6
 27 74  1  1
 47 35  1  0
 41 24  1  0
 42 34  1  0
M  END

> <chembl_id>
CHEMBL1200510

> <chembl_pref_name>
ERYTHROMYCIN STEARATE

$$$$

     RDKit          2D

 63 65  0  0  0  0  0  0  0  0999 V2000
    0.8292   -2.9000    0.0000 C   0  0  0  0  0  0  0  0  0  0  0  0
    1.1833   -2.2875    0.0000 C   0  0  0  0  0  0  0  0  0  0  0  0
   -1.0833   -1.1917    0.0000 C   0  0  0  0  0  0  0  0  0  0  0  0
   -2.3000   -1.1917    0.0000 C   0  0  0  0  0  0  0  0  0  0  0  0
   -2.9125    0.5708    0.0000 C   0  0  0  0  0  0  0  0  0  0  0  0
   -1.6875   -1.5417    0.0000 C   0  0  0  0  0  0  0  0  0  0  0  0
   -0.4708   -0.1375    0.0000 C   0  0  0  0  0  0  0  0  0  0  0  0
   -1.0833   -0.4875    0.0000 C   0  0  0  0  0  0  0  0  0  0  0  0
   -2.3000    1.6208    0.0000 C   0  0  0  0  0  0  0  0  0  0  0  0
   -2.3000   -0.4917    0.0000 O   0  0  0  0  0  0  0  0  0  0  0  0
   -2.3000    0.9125    0.0000 C   0  0  0  0  0  0  0  0  0  0  0  0
    0.1250   -2.9000    0.0000 C   0  0  0  0  0  0  0  0  0  0  0  0
   -1.6958    1.9708    0.0000 C   0  0  0  0  0  0  0  0  0  0  0  0
    1.1792   -1.3417    0.0000 O   0  0  0  0  0  0  0  0  0  0  0  0
   -2.4708   -4.2750    0.0000 C   0  0  0  0  0  0  0  0  0  0  0  0
   -0.4708    0.5708    0.0000 C   0  0  0  0  0  0  0  0  0  0  0  0
   -1.4083   -3.6625    0.0000 C   0  0  0  0  0  0  0  0  0  0  0  0
   -1.7583   -4.2750    0.0000 C   0  0  0  0  0  0  0  0  0  0  0  0
    0.8292   -1.6750    0.0000 O   0  0  0  0  0  0  0  0  0  0  0  0
   -1.7583   -3.0500    0.0000 O   0  0  0  0  0  0  0  0  0  0  0  0
   -2.9125   -0.1417    0.0000 C   0  0  0  0  0  0  0  0  0  0  0  0
   -2.8250   -3.6625    0.0000 C   0  0  0  0  0  0  0  0  0  0  0  0
   -0.4667   -1.5417    0.0000 O   0  0  0  0  0  0  0  0  0  0  0  0
   -2.4708   -3.0500    0.0000 C   0  0  0  0  0  0  0  0  0  0  0  0
   -1.0833    1.6208    0.0000 C   0  0  0  0  0  0  0  0  0  0  0  0
    1.1875   -3.5125    0.0000 O   0  0  0  0  0  0  0  0  0  0  0  0
   -1.0833    0.9208    0.0000 C   0  0  0  0  0  0  0  0  0  0  0  0
   -0.2333   -2.2875    0.0000 C   0  0  0  0  0  0  0  0  0  0  0  0
    1.1792   -4.2167    0.0000 C   0  0  0  0  0  0  0  0  0  0  0  0
   -0.2292   -3.5125    0.0000 N   0  0  0  0  0  0  0  0  0  0  0  0
   -2.9167   -1.5500    0.0000 O   0  0  0  0  0  0  0  0  0  0  0  0
    3.0208   -4.5833    0.0000 C   0  0  0  0  0  0  0  0  0  0  0  0
    0.1250   -1.6750    0.0000 C   0  0  0  0  0  0  0  0  0  0  0  0
   -1.6958    2.6833    0.0000 O   0  0  0  0  0  0  0  0  0  0  0  0
    0.5667   -4.5708    0.0000 O   0  0  0  0  0  0  0  0  0  0  0  0
    3.0167   -5.2917    0.0000 O   0  0  0  0  0  0  0  0  0  0  0  0
   -3.2708    1.1833    0.0000 O   0  0  0  0  0  0  0  0  0  0  0  0
   -0.1208    1.1833    0.0000 O   0  0  0  0  0  0  0  0  0  0  0  0
   -1.6917    0.5583    0.0000 O   0  0  0  0  0  0  0  0  0  0  0  0
   -3.0833   -4.6250    0.0000 O   0  0  0  0  0  0  0  0  0  0  0  0
   -3.5333   -3.6625    0.0000 O   0  0  0  0  0  0  0  0  0  0  0  0
    1.7917   -4.5750    0.0000 C   0  0  0  0  0  0  0  0  0  0  0  0
    2.4083   -4.2250    0.0000 C   0  0  0  0  0  0  0  0  0  0  0  0
   -3.6208    0.5708    0.0000 C   0  0  0  0  0  0  0  0  0  0  0  0
   -1.6875   -2.2542    0.0000 C   0  0  0  0  0  0  0  0  0  0  0  0
   -1.6958   -0.1292    0.0000 C   0  0  0  0  0  0  0  0  0  0  0  0
   -2.9167    1.9708    0.0000 C   0  0  0  0  0  0  0  0  0  0  0  0
    3.6333   -4.2333    0.0000 O   0  0  0  0  0  0  0  0  0  0  0  0
   -2.4708   -4.9792    0.0000 C   0  0  0  0  0  0  0  0  0  0  0  0
    0.2417    0.5708    0.0000 C   0  0  0  0  0  0  0  0  0  0  0  0
   -3.5292   -0.4958    0.0000 C   0  0  0  0  0  0  0  0  0  0  0  0
   -2.8208   -2.4333    0.0000 C   0  0  0  0  0  0  0  0  0  0  0  0
   -0.4667    1.9792    0.0000 C   0  0  0  0  0  0  0  0  0  0  0  0
   -0.9375   -3.5125    0.0000 C   0  0  0  0  0  0  0  0  0  0  0  0
    0.1250   -4.1250    0.0000 C   0  0  0  0  0  0  0  0  0  0  0  0
   -0.2292   -1.0583    0.0000 C   0  0  0  0  0  0  0  0  0  0  0  0
    4.2458   -4.5917    0.0000 C   0  0  0  0  0  0  0  0  0  0  0  0
   -3.6958   -4.2625    0.0000 C   0  0  0  0  0  0  0  0  0  0  0  0
   -4.1417   -0.1417    0.0000 C   0  0  0  0  0  0  0  0  0  0  0  0
    4.8625   -4.2417    0.0000 C   0  0  0  0  0  0  0  0  0  0  0  0
    1.7917   -2.6417    0.0000 H   0  0  0  0  0  0  0  0  0  0  0  0
    0.2417   -0.1375    0.0000 H   0  0  0  0  0  0  0  0  0  0  0  0
   -0.7958   -4.0167    0.0000 H   0  0  0  0  0  0  0  0  0  0  0  0
  2  1  1  0
  3  8  1  0
  4  6  1  0
  5 21  1  0
  6  3  1  0
  7 14  1  0
  8  7  1  0
  9 13  1  0
 10  4  1  0
 11  9  1  0
 12  1  1  0
 13 25  1  0
 14  2  1  0
 15 18  1  0
 16  7  1  0
 17 23  1  0
 18 17  1  0
 19  2  1  0
 20 17  1  0
 21 10  1  0
 22 24  1  0
  3 23  1  6
 24 20  1  0
 25 27  1  0
  1 26  1  6
 27 16  1  0
 28 12  1  0
 29 26  1  0
 12 30  1  1
 31  4  2  0
 32 43  1  0
 33 28  1  0
 34 13  2  0
 35 29  2  0
 36 32  2  0
  5 37  1  1
 16 38  1  1
 11 39  1  1
 15 40  1  1
 22 41  1  1
 42 29  1  0
 43 42  1  0
 44  5  1  0
  6 45  1  1
  8 46  1  6
  9 47  1  1
 48 32  1  0
 49 15  1  0
 50 16  1  0
 21 51  1  6
 24 52  1  6
 25 53  1  6
 54 30  1  0
 55 30  1  0
 33 56  1  1
 57 48  1  0
 58 40  1  0
 59 51  1  0
 60 57  1  0
  2 61  1  6
  7 62  1  1
 17 63  1  6
 33 19  1  0
  5 11  1  0
 22 15  1  0
M  END

> <chembl_id>
CHEMBL1200688

> <chembl_pref_name>
ERYTHROMYCIN ETHYLSUCCINATE

$$$$

     RDKit          2D

 72 73  0  0  0  0  0  0  0  0999 V2000
    7.5791   -6.1993    0.0000 S   0  0  0  0  0  0  0  0  0  0  0  0
    7.1613   -5.4706    0.0000 O   0  0  0  0  0  0  0  0  0  0  0  0
    7.9872   -5.4706    0.0000 O   0  0  0  0  0  0  0  0  0  0  0  0
    6.8649   -6.6074    0.0000 O   0  0  0  0  0  0  0  0  0  0  0  0
    8.2933   -6.6074    0.0000 O   0  0  0  0  0  0  0  0  0  0  0  0
    9.0074   -6.1993    0.0000 C   0  0  0  0  0  0  0  0  0  0  0  0
    9.7216   -6.6074    0.0000 C   0  0  0  0  0  0  0  0  0  0  0  0
    6.8649   -7.4382    0.0000 C   0  0  0  0  0  0  0  0  0  0  0  0
    7.5791   -7.8463    0.0000 C   0  0  0  0  0  0  0  0  0  0  0  0
   10.4407   -7.8463    0.0000 C   0  0  0  0  0  0  0  0  0  0  0  0
    9.7216   -7.4382    0.0000 C   0  0  0  0  0  0  0  0  0  0  0  0
    9.0074   -7.8463    0.0000 C   0  0  0  0  0  0  0  0  0  0  0  0
    8.2933   -7.4382    0.0000 C   0  0  0  0  0  0  0  0  0  0  0  0
   10.4407   -6.1993    0.0000 C   0  0  0  0  0  0  0  0  0  0  0  0
   11.1549   -6.6074    0.0000 C   0  0  0  0  0  0  0  0  0  0  0  0
   11.1549   -7.4382    0.0000 C   0  0  0  0  0  0  0  0  0  0  0  0
    6.1458   -7.8463    0.0000 C   0  0  0  0  0  0  0  0  0  0  0  0
    4.7272   -7.6908    0.0000 C   0  0  0  0  0  0  0  0  0  0  0  0
    2.0891   -6.4131    0.0000 C   0  0  0  0  0  0  0  0  0  0  0  0
    0.6608   -6.4180    0.0000 C   0  0  0  0  0  0  0  0  0  0  0  0
   -0.0534   -4.3629    0.0000 C   0  0  0  0  0  0  0  0  0  0  0  0
    1.3750   -6.8261    0.0000 C   0  0  0  0  0  0  0  0  0  0  0  0
    4.3191   -8.4002    0.0000 C   0  0  0  0  0  0  0  0  0  0  0  0
    2.8033   -5.1791    0.0000 C   0  0  0  0  0  0  0  0  0  0  0  0
    2.0891   -5.5872    0.0000 C   0  0  0  0  0  0  0  0  0  0  0  0
    0.6608   -3.1386    0.0000 C   0  0  0  0  0  0  0  0  0  0  0  0
    0.6608   -5.5969    0.0000 O   0  0  0  0  0  0  0  0  0  0  0  0
    0.6608   -3.9548    0.0000 C   0  0  0  0  0  0  0  0  0  0  0  0
    1.3750   -2.7255    0.0000 C   0  0  0  0  0  0  0  0  0  0  0  0
    4.7223   -6.5929    0.0000 O   0  0  0  0  0  0  0  0  0  0  0  0
    0.4713  -10.0034    0.0000 C   0  0  0  0  0  0  0  0  0  0  0  0
    3.4884   -8.4002    0.0000 C   0  0  0  0  0  0  0  0  0  0  0  0
    2.8033   -4.3629    0.0000 C   0  0  0  0  0  0  0  0  0  0  0  0
    1.7053   -9.2940    0.0000 C   0  0  0  0  0  0  0  0  0  0  0  0
    1.2972  -10.0034    0.0000 C   0  0  0  0  0  0  0  0  0  0  0  0
    4.3191   -6.9766    0.0000 O   0  0  0  0  0  0  0  0  0  0  0  0
    1.2972   -8.5799    0.0000 O   0  0  0  0  0  0  0  0  0  0  0  0
   -0.0534   -5.1838    0.0000 C   0  0  0  0  0  0  0  0  0  0  0  0
    0.0534   -9.2940    0.0000 C   0  0  0  0  0  0  0  0  0  0  0  0
    2.8033   -6.8212    0.0000 O   0  0  0  0  0  0  0  0  0  0  0  0
    0.4713   -8.5799    0.0000 C   0  0  0  0  0  0  0  0  0  0  0  0
    2.0891   -3.1337    0.0000 C   0  0  0  0  0  0  0  0  0  0  0  0
    2.0891   -3.9548    0.0000 C   0  0  0  0  0  0  0  0  0  0  0  0
    3.0754   -7.6908    0.0000 C   0  0  0  0  0  0  0  0  0  0  0  0
    3.0803   -9.1191    0.0000 N   0  0  0  0  0  0  0  0  0  0  0  0
   -0.0534   -6.8308    0.0000 O   0  0  0  0  0  0  0  0  0  0  0  0
    3.4884   -6.9766    0.0000 C   0  0  0  0  0  0  0  0  0  0  0  0
    1.3701   -1.8997    0.0000 O   0  0  0  0  0  0  0  0  0  0  0  0
   -0.4664   -3.6438    0.0000 O   0  0  0  0  0  0  0  0  0  0  0  0
    4.7272   -9.1191    0.0000 O   0  0  0  0  0  0  0  0  0  0  0  0
    3.2114   -3.6438    0.0000 O   0  0  0  0  0  0  0  0  0  0  0  0
    1.3750   -4.3725    0.0000 O   0  0  0  0  0  0  0  0  0  0  0  0
   -0.2478  -10.4115    0.0000 O   0  0  0  0  0  0  0  0  0  0  0  0
   -0.7725   -9.2940    0.0000 O   0  0  0  0  0  0  0  0  0  0  0  0
   -0.8745   -4.3629    0.0000 C   0  0  0  0  0  0  0  0  0  0  0  0
    1.3797   -7.6519    0.0000 C   0  0  0  0  0  0  0  0  0  0  0  0
    1.3701   -5.1742    0.0000 C   0  0  0  0  0  0  0  0  0  0  0  0
   -0.0534   -2.7255    0.0000 C   0  0  0  0  0  0  0  0  0  0  0  0
    0.4664  -10.8342    0.0000 C   0  0  0  0  0  0  0  0  0  0  0  0
    3.6292   -4.3629    0.0000 C   0  0  0  0  0  0  0  0  0  0  0  0
   -0.7676   -5.6017    0.0000 C   0  0  0  0  0  0  0  0  0  0  0  0
    0.0583   -7.8609    0.0000 C   0  0  0  0  0  0  0  0  0  0  0  0
    2.8033   -2.7159    0.0000 C   0  0  0  0  0  0  0  0  0  0  0  0
    3.4931   -9.8333    0.0000 C   0  0  0  0  0  0  0  0  0  0  0  0
    2.2542   -9.1191    0.0000 C   0  0  0  0  0  0  0  0  0  0  0  0
    3.0803   -6.2576    0.0000 C   0  0  0  0  0  0  0  0  0  0  0  0
   -0.9620   -9.9936    0.0000 C   0  0  0  0  0  0  0  0  0  0  0  0
   -1.4818   -5.1887    0.0000 C   0  0  0  0  0  0  0  0  0  0  0  0
    5.5522   -9.1191    0.0000 C   0  0  0  0  0  0  0  0  0  0  0  0
    5.9647   -9.8336    0.0000 C   0  0  0  0  0  0  0  0  0  0  0  0
    5.9647   -8.4047    0.0000 O   0  0  0  0  0  0  0  0  0  0  0  0
    6.7897   -9.8336    0.0000 C   0  0  0  0  0  0  0  0  0  0  0  0
  2  1  2  0
  3  1  2  0
  4  1  1  0
  5  1  1  0
  6  5  1  0
  7  6  1  0
  8  9  1  0
  9 13  1  0
 10 16  1  0
 11 10  1  0
 12 11  1  0
 13 12  1  0
 14  7  1  0
 15 14  1  0
 16 15  1  0
 17  8  1  0
 19 25  1  0
 20 22  1  0
 21 28  1  0
 22 19  1  0
 23 18  1  0
 24 30  1  6
 25 24  1  0
 26 29  1  0
 27 20  1  0
 28 26  1  0
 29 42  1  0
 18 30  1  1
 31 35  1  0
 32 23  1  0
 33 24  1  0
 34 40  1  1
 35 34  1  0
 36 18  1  0
 37 34  1  0
 38 27  1  0
 39 41  1  0
 19 40  1  6
 41 37  1  0
 42 43  1  0
 43 33  1  0
 44 47  1  0
 32 45  1  1
 46 20  2  0
 47 36  1  0
 48 29  2  0
 21 49  1  1
 23 50  1  6
 33 51  1  1
 28 52  1  1
 31 53  1  0
 39 54  1  1
 55 21  1  0
 22 56  1  1
 25 57  1  6
 26 58  1  1
 31 59  1  6
 60 33  1  0
 38 61  1  6
 41 62  1  6
 42 63  1  6
 64 45  1  0
 65 45  1  0
 47 66  1  1
 67 53  1  0
 68 61  1  0
 44 32  1  0
 38 21  1  0
 39 31  1  0
 50 69  1  0
 69 70  1  0
 69 71  2  0
 70 72  1  0
M  END

> <chembl_id>
CHEMBL2218877

> <chembl_pref_name>
ERYTHROMYCIN ESTOLATE

$$$$

     RDKit          2D

 69 70  0  0  0  0  0  0  0  0999 V2000
    8.6824   -6.4159    0.0000 C   0  0  0  0  0  0  0  0  0  0  0  0
    9.4006   -6.8333    0.0000 C   0  0  0  0  0  0  0  0  0  0  0  0
    7.9689   -6.8333    0.0000 C   0  0  0  0  0  0  0  0  0  0  0  0
    7.2506   -6.4159    0.0000 C   0  0  0  0  0  0  0  0  0  0  0  0
   10.1189   -6.4159    0.0000 C   0  0  0  0  0  0  0  0  0  0  0  0
    6.5421   -6.8333    0.0000 C   0  0  0  0  0  0  0  0  0  0  0  0
   10.1189   -5.5860    0.0000 O   0  0  0  0  0  0  0  0  0  0  0  0
    9.4006   -7.6583    0.0000 O   0  0  0  0  0  0  0  0  0  0  0  0
    8.6824   -5.5860    0.0000 O   0  0  0  0  0  0  0  0  0  0  0  0
    7.9689   -7.6583    0.0000 O   0  0  0  0  0  0  0  0  0  0  0  0
    7.2506   -5.5860    0.0000 O   0  0  0  0  0  0  0  0  0  0  0  0
   10.8274   -6.8333    0.0000 O   0  0  0  0  0  0  0  0  0  0  0  0
    6.5421   -7.6583    0.0000 O   0  0  0  0  0  0  0  0  0  0  0  0
    5.1153   -6.8333    0.0000 O   0  0  0  0  0  0  0  0  0  0  0  0
    5.8238   -6.4159    0.0000 C   0  0  0  0  0  0  0  0  0  0  0  0
    3.1545   -8.5415    0.0000 C   0  0  0  0  0  0  0  0  0  0  0  0
    0.5145   -7.2652    0.0000 C   0  0  0  0  0  0  0  0  0  0  0  0
   -0.9027   -7.2701    0.0000 C   0  0  0  0  0  0  0  0  0  0  0  0
   -1.6161   -5.2172    0.0000 C   0  0  0  0  0  0  0  0  0  0  0  0
   -0.1893   -7.6778    0.0000 C   0  0  0  0  0  0  0  0  0  0  0  0
    2.7421   -9.2502    0.0000 C   0  0  0  0  0  0  0  0  0  0  0  0
    1.2279   -6.0325    0.0000 C   0  0  0  0  0  0  0  0  0  0  0  0
    0.5145   -6.4402    0.0000 C   0  0  0  0  0  0  0  0  0  0  0  0
   -0.9027   -3.9942    0.0000 C   0  0  0  0  0  0  0  0  0  0  0  0
   -0.9027   -6.4499    0.0000 O   0  0  0  0  0  0  0  0  0  0  0  0
   -0.9027   -4.8095    0.0000 C   0  0  0  0  0  0  0  0  0  0  0  0
   -0.1989   -3.5816    0.0000 C   0  0  0  0  0  0  0  0  0  0  0  0
    3.1497   -7.4448    0.0000 O   0  0  0  0  0  0  0  0  0  0  0  0
   -1.1016  -10.8517    0.0000 C   0  0  0  0  0  0  0  0  0  0  0  0
    1.9219   -9.2502    0.0000 C   0  0  0  0  0  0  0  0  0  0  0  0
    1.2279   -5.2172    0.0000 C   0  0  0  0  0  0  0  0  0  0  0  0
    0.1359  -10.1431    0.0000 C   0  0  0  0  0  0  0  0  0  0  0  0
   -0.2717  -10.8517    0.0000 C   0  0  0  0  0  0  0  0  0  0  0  0
    2.7421   -7.8281    0.0000 O   0  0  0  0  0  0  0  0  0  0  0  0
   -0.2717   -9.4297    0.0000 O   0  0  0  0  0  0  0  0  0  0  0  0
   -1.6161   -6.0422    0.0000 C   0  0  0  0  0  0  0  0  0  0  0  0
   -1.5142  -10.1431    0.0000 C   0  0  0  0  0  0  0  0  0  0  0  0
    1.2327   -7.6729    0.0000 O   0  0  0  0  0  0  0  0  0  0  0  0
   -1.1016   -9.4297    0.0000 C   0  0  0  0  0  0  0  0  0  0  0  0
    0.5145   -3.9893    0.0000 C   0  0  0  0  0  0  0  0  0  0  0  0
    0.5145   -4.8095    0.0000 C   0  0  0  0  0  0  0  0  0  0  0  0
    1.5045   -8.5415    0.0000 C   0  0  0  0  0  0  0  0  0  0  0  0
    1.5093   -9.9684    0.0000 N   0  0  0  0  0  0  0  0  0  0  0  0
   -1.6210   -7.6825    0.0000 O   0  0  0  0  0  0  0  0  0  0  0  0
    1.9219   -7.8281    0.0000 C   0  0  0  0  0  0  0  0  0  0  0  0
   -0.1989   -2.7566    0.0000 O   0  0  0  0  0  0  0  0  0  0  0  0
   -2.0334   -4.4989    0.0000 O   0  0  0  0  0  0  0  0  0  0  0  0
    3.1594   -9.9684    0.0000 O   0  0  0  0  0  0  0  0  0  0  0  0
    1.6356   -4.4989    0.0000 O   0  0  0  0  0  0  0  0  0  0  0  0
   -0.1942   -5.2269    0.0000 O   0  0  0  0  0  0  0  0  0  0  0  0
   -1.8150  -11.2594    0.0000 O   0  0  0  0  0  0  0  0  0  0  0  0
   -2.3392  -10.1431    0.0000 O   0  0  0  0  0  0  0  0  0  0  0  0
   -2.4411   -5.2172    0.0000 C   0  0  0  0  0  0  0  0  0  0  0  0
   -0.1893   -8.5028    0.0000 C   0  0  0  0  0  0  0  0  0  0  0  0
   -0.1989   -6.0276    0.0000 C   0  0  0  0  0  0  0  0  0  0  0  0
   -1.6210   -3.5816    0.0000 C   0  0  0  0  0  0  0  0  0  0  0  0
   -1.1016  -11.6816    0.0000 C   0  0  0  0  0  0  0  0  0  0  0  0
    2.0578   -5.2172    0.0000 C   0  0  0  0  0  0  0  0  0  0  0  0
   -2.3344   -6.4548    0.0000 C   0  0  0  0  0  0  0  0  0  0  0  0
   -1.5093   -8.7115    0.0000 C   0  0  0  0  0  0  0  0  0  0  0  0
    1.2327   -3.5720    0.0000 C   0  0  0  0  0  0  0  0  0  0  0  0
    0.6843   -9.9684    0.0000 C   0  0  0  0  0  0  0  0  0  0  0  0
    1.9219  -10.6818    0.0000 C   0  0  0  0  0  0  0  0  0  0  0  0
    1.5093   -7.1099    0.0000 C   0  0  0  0  0  0  0  0  0  0  0  0
   -2.5285  -10.8419    0.0000 C   0  0  0  0  0  0  0  0  0  0  0  0
   -3.0478   -6.0422    0.0000 C   0  0  0  0  0  0  0  0  0  0  0  0
    3.8632   -8.9541    0.0000 H   0  0  0  0  0  0  0  0  0  0  0  0
    2.0578   -6.0325    0.0000 H   0  0  0  0  0  0  0  0  0  0  0  0
    0.8493  -10.5556    0.0000 H   0  0  0  0  0  0  0  0  0  0  0  0
  2  1  1  0
  3  1  1  0
  4  3  1  0
  5  2  1  0
  6  4  1  0
  7  5  2  0
  2  8  1  6
  1  9  1  1
  3 10  1  1
  4 11  1  1
 12  5  1  0
  6 13  1  6
 14 15  1  0
 15  6  1  0
 17 23  1  0
 18 20  1  0
 19 26  1  0
 20 17  1  0
 21 16  1  0
 22 28  1  0
 23 22  1  0
 24 27  1  0
 25 18  1  0
 26 24  1  0
 27 40  1  0
 28 16  1  0
 29 33  1  0
 30 21  1  0
 31 22  1  0
 32 38  1  0
 33 32  1  0
 34 16  1  0
 35 32  1  0
 36 25  1  0
 37 39  1  0
 17 38  1  6
 39 35  1  0
 40 41  1  0
 41 31  1  0
 42 45  1  0
 30 43  1  1
 44 18  2  0
 45 34  1  0
 46 27  2  0
 19 47  1  1
 21 48  1  6
 31 49  1  1
 26 50  1  1
 29 51  1  1
 37 52  1  1
 53 19  1  0
 20 54  1  1
 23 55  1  6
 24 56  1  1
 57 29  1  0
 58 31  1  0
 36 59  1  6
 39 60  1  6
 40 61  1  6
 62 43  1  0
 63 43  1  0
 45 64  1  1
 65 51  1  0
 66 59  1  0
 16 67  1  6
 22 68  1  1
 32 69  1  6
 42 30  1  0
 36 19  1  0
 37 29  1  0
M  END

> <chembl_id>
CHEMBL3545060

> <chembl_pref_name>
ERYTHROMYCIN GLUCEPTATE

$$$$

     RDKit          2D

 54 56  0  0  0  0  0  0  0  0999 V2000
    3.1579   -8.5506    0.0000 C   0  0  0  0  0  0  0  0  0  0  0  0
    0.5150   -7.2729    0.0000 C   0  0  0  0  0  0  0  0  0  0  0  0
   -0.9037   -7.2778    0.0000 C   0  0  0  0  0  0  0  0  0  0  0  0
   -1.6178   -5.2228    0.0000 C   0  0  0  0  0  0  0  0  0  0  0  0
   -0.1895   -7.6860    0.0000 C   0  0  0  0  0  0  0  0  0  0  0  0
    2.7450   -9.2600    0.0000 C   0  0  0  0  0  0  0  0  0  0  0  0
    1.2292   -6.0389    0.0000 C   0  0  0  0  0  0  0  0  0  0  0  0
    0.5150   -6.4471    0.0000 C   0  0  0  0  0  0  0  0  0  0  0  0
   -0.9037   -3.9985    0.0000 C   0  0  0  0  0  0  0  0  0  0  0  0
   -0.9037   -6.4568    0.0000 O   0  0  0  0  0  0  0  0  0  0  0  0
   -0.9037   -4.8146    0.0000 C   0  0  0  0  0  0  0  0  0  0  0  0
   -0.1991   -3.5854    0.0000 C   0  0  0  0  0  0  0  0  0  0  0  0
    3.1531   -7.4527    0.0000 O   0  0  0  0  0  0  0  0  0  0  0  0
   -1.1028  -10.8633    0.0000 C   0  0  0  0  0  0  0  0  0  0  0  0
    1.9239   -9.2600    0.0000 C   0  0  0  0  0  0  0  0  0  0  0  0
    1.2292   -5.2228    0.0000 C   0  0  0  0  0  0  0  0  0  0  0  0
    0.1360  -10.1539    0.0000 C   0  0  0  0  0  0  0  0  0  0  0  0
   -0.2720  -10.8633    0.0000 C   0  0  0  0  0  0  0  0  0  0  0  0
    2.7450   -7.8364    0.0000 O   0  0  0  0  0  0  0  0  0  0  0  0
   -0.2720   -9.4397    0.0000 O   0  0  0  0  0  0  0  0  0  0  0  0
   -1.6178   -6.0486    0.0000 C   0  0  0  0  0  0  0  0  0  0  0  0
   -1.5158  -10.1539    0.0000 C   0  0  0  0  0  0  0  0  0  0  0  0
    1.2340   -7.6811    0.0000 O   0  0  0  0  0  0  0  0  0  0  0  0
   -1.1028   -9.4397    0.0000 C   0  0  0  0  0  0  0  0  0  0  0  0
    0.5150   -3.9935    0.0000 C   0  0  0  0  0  0  0  0  0  0  0  0
    0.5150   -4.8146    0.0000 C   0  0  0  0  0  0  0  0  0  0  0  0
    1.5061   -8.5506    0.0000 C   0  0  0  0  0  0  0  0  0  0  0  0
    1.5109   -9.9790    0.0000 N   0  0  0  0  0  0  0  0  0  0  0  0
   -1.6227   -7.6907    0.0000 O   0  0  0  0  0  0  0  0  0  0  0  0
    1.9239   -7.8364    0.0000 C   0  0  0  0  0  0  0  0  0  0  0  0
   -0.1991   -2.7595    0.0000 O   0  0  0  0  0  0  0  0  0  0  0  0
   -2.0356   -4.5037    0.0000 O   0  0  0  0  0  0  0  0  0  0  0  0
    3.1628   -9.9790    0.0000 O   0  0  0  0  0  0  0  0  0  0  0  0
    1.6373   -4.5037    0.0000 O   0  0  0  0  0  0  0  0  0  0  0  0
   -0.1944   -5.2325    0.0000 O   0  0  0  0  0  0  0  0  0  0  0  0
   -1.8169  -11.2714    0.0000 O   0  0  0  0  0  0  0  0  0  0  0  0
   -2.3417  -10.1539    0.0000 O   0  0  0  0  0  0  0  0  0  0  0  0
   -2.4437   -5.2228    0.0000 C   0  0  0  0  0  0  0  0  0  0  0  0
   -0.1895   -8.5119    0.0000 C   0  0  0  0  0  0  0  0  0  0  0  0
   -0.1991   -6.0340    0.0000 C   0  0  0  0  0  0  0  0  0  0  0  0
   -1.6227   -3.5854    0.0000 C   0  0  0  0  0  0  0  0  0  0  0  0
   -1.1028  -11.6940    0.0000 C   0  0  0  0  0  0  0  0  0  0  0  0
    2.0600   -5.2228    0.0000 C   0  0  0  0  0  0  0  0  0  0  0  0
   -2.3369   -6.4617    0.0000 C   0  0  0  0  0  0  0  0  0  0  0  0
   -1.5109   -8.7208    0.0000 C   0  0  0  0  0  0  0  0  0  0  0  0
    1.2340   -3.5758    0.0000 C   0  0  0  0  0  0  0  0  0  0  0  0
    0.6850   -9.9790    0.0000 C   0  0  0  0  0  0  0  0  0  0  0  0
    1.9239  -10.6932    0.0000 C   0  0  0  0  0  0  0  0  0  0  0  0
    1.5109   -7.1175    0.0000 C   0  0  0  0  0  0  0  0  0  0  0  0
   -2.5312  -10.8534    0.0000 C   0  0  0  0  0  0  0  0  0  0  0  0
   -3.0510   -6.0486    0.0000 C   0  0  0  0  0  0  0  0  0  0  0  0
    3.8673   -8.9636    0.0000 H   0  0  0  0  0  0  0  0  0  0  0  0
    2.0600   -6.0389    0.0000 H   0  0  0  0  0  0  0  0  0  0  0  0
    0.8502  -10.5668    0.0000 H   0  0  0  0  0  0  0  0  0  0  0  0
  2  8  1  0
  3  5  1  0
  4 11  1  0
  5  2  1  0
  6  1  1  0
  7 13  1  0
  8  7  1  0
  9 12  1  0
 10  3  1  0
 11  9  1  0
 12 25  1  0
 13  1  1  0
 14 18  1  0
 15  6  1  0
 16  7  1  0
 17 23  1  0
 18 17  1  0
 19  1  1  0
 20 17  1  0
 21 10  1  0
 22 24  1  0
  2 23  1  6
 24 20  1  0
 25 26  1  0
 26 16  1  0
 27 30  1  0
 15 28  1  1
 29  3  2  0
 30 19  1  0
 31 12  2  0
  4 32  1  1
  6 33  1  6
 16 34  1  1
 11 35  1  1
 14 36  1  1
 22 37  1  1
 38  4  1  0
  5 39  1  1
  8 40  1  6
  9 41  1  1
 42 14  1  0
 43 16  1  0
 21 44  1  6
 24 45  1  6
 25 46  1  6
 47 28  1  0
 48 28  1  0
 30 49  1  1
 50 36  1  0
 51 44  1  0
  1 52  1  6
  7 53  1  1
 17 54  1  6
 27 15  1  0
 21  4  1  0
 22 14  1  0
M  END

> <chembl_id>
CHEMBL532

> <chembl_pref_name>
ERYTHROMYCIN

$$$$

     RDKit          2D

 71 72  0  0  0  0  0  0  0  0999 V2000
    6.5000   -5.3167    0.0000 S   0  0  0  0  0  0  0  0  0  0  0  0
    6.1417   -4.6917    0.0000 O   0  0  0  0  0  0  0  0  0  0  0  0
    6.8500   -4.6917    0.0000 O   0  0  0  0  0  0  0  0  0  0  0  0
    5.8875   -5.6667    0.0000 O   0  0  0  0  0  0  0  0  0  0  0  0
    7.1125   -5.6667    0.0000 O   0  0  0  0  0  0  0  0  0  0  0  0
    7.7250   -5.3167    0.0000 C   0  0  0  0  0  0  0  0  0  0  0  0
    8.3375   -5.6667    0.0000 C   0  0  0  0  0  0  0  0  0  0  0  0
    5.8875   -6.3792    0.0000 C   0  0  0  0  0  0  0  0  0  0  0  0
    6.5000   -6.7292    0.0000 C   0  0  0  0  0  0  0  0  0  0  0  0
    8.9542   -6.7292    0.0000 C   0  0  0  0  0  0  0  0  0  0  0  0
    8.3375   -6.3792    0.0000 C   0  0  0  0  0  0  0  0  0  0  0  0
    7.7250   -6.7292    0.0000 C   0  0  0  0  0  0  0  0  0  0  0  0
    7.1125   -6.3792    0.0000 C   0  0  0  0  0  0  0  0  0  0  0  0
    8.9542   -5.3167    0.0000 C   0  0  0  0  0  0  0  0  0  0  0  0
    9.5667   -5.6667    0.0000 C   0  0  0  0  0  0  0  0  0  0  0  0
    9.5667   -6.3792    0.0000 C   0  0  0  0  0  0  0  0  0  0  0  0
    5.2708   -6.7292    0.0000 C   0  0  0  0  0  0  0  0  0  0  0  0
    4.0542   -6.5958    0.0000 C   0  0  0  0  0  0  0  0  0  0  0  0
    1.7917   -5.5000    0.0000 C   0  0  0  0  0  0  0  0  0  0  0  0
    0.5667   -5.5042    0.0000 C   0  0  0  0  0  0  0  0  0  0  0  0
   -0.0458   -3.7417    0.0000 C   0  0  0  0  0  0  0  0  0  0  0  0
    1.1792   -5.8542    0.0000 C   0  0  0  0  0  0  0  0  0  0  0  0
    3.7042   -7.2042    0.0000 C   0  0  0  0  0  0  0  0  0  0  0  0
    2.4042   -4.4417    0.0000 C   0  0  0  0  0  0  0  0  0  0  0  0
    1.7917   -4.7917    0.0000 C   0  0  0  0  0  0  0  0  0  0  0  0
    0.5667   -2.6917    0.0000 C   0  0  0  0  0  0  0  0  0  0  0  0
    0.5667   -4.8000    0.0000 O   0  0  0  0  0  0  0  0  0  0  0  0
    0.5667   -3.3917    0.0000 C   0  0  0  0  0  0  0  0  0  0  0  0
    1.1792   -2.3375    0.0000 C   0  0  0  0  0  0  0  0  0  0  0  0
    4.0500   -5.6542    0.0000 O   0  0  0  0  0  0  0  0  0  0  0  0
    0.4042   -8.5792    0.0000 C   0  0  0  0  0  0  0  0  0  0  0  0
    2.9917   -7.2042    0.0000 C   0  0  0  0  0  0  0  0  0  0  0  0
    2.4042   -3.7417    0.0000 C   0  0  0  0  0  0  0  0  0  0  0  0
    1.4625   -7.9708    0.0000 C   0  0  0  0  0  0  0  0  0  0  0  0
    1.1125   -8.5792    0.0000 C   0  0  0  0  0  0  0  0  0  0  0  0
    3.7042   -5.9833    0.0000 O   0  0  0  0  0  0  0  0  0  0  0  0
    1.1125   -7.3583    0.0000 O   0  0  0  0  0  0  0  0  0  0  0  0
   -0.0458   -4.4458    0.0000 C   0  0  0  0  0  0  0  0  0  0  0  0
    0.0458   -7.9708    0.0000 C   0  0  0  0  0  0  0  0  0  0  0  0
    2.4042   -5.8500    0.0000 O   0  0  0  0  0  0  0  0  0  0  0  0
    0.4042   -7.3583    0.0000 C   0  0  0  0  0  0  0  0  0  0  0  0
    1.7917   -2.6875    0.0000 C   0  0  0  0  0  0  0  0  0  0  0  0
    1.7917   -3.3917    0.0000 C   0  0  0  0  0  0  0  0  0  0  0  0
    2.6375   -6.5958    0.0000 C   0  0  0  0  0  0  0  0  0  0  0  0
    2.6417   -7.8208    0.0000 N   0  0  0  0  0  0  0  0  0  0  0  0
   -0.0458   -5.8583    0.0000 O   0  0  0  0  0  0  0  0  0  0  0  0
    2.9917   -5.9833    0.0000 C   0  0  0  0  0  0  0  0  0  0  0  0
    1.1750   -1.6292    0.0000 O   0  0  0  0  0  0  0  0  0  0  0  0
   -0.4000   -3.1250    0.0000 O   0  0  0  0  0  0  0  0  0  0  0  0
    4.0542   -7.8208    0.0000 O   0  0  0  0  0  0  0  0  0  0  0  0
    2.7542   -3.1250    0.0000 O   0  0  0  0  0  0  0  0  0  0  0  0
    1.1792   -3.7500    0.0000 O   0  0  0  0  0  0  0  0  0  0  0  0
   -0.2125   -8.9292    0.0000 O   0  0  0  0  0  0  0  0  0  0  0  0
   -0.6625   -7.9708    0.0000 O   0  0  0  0  0  0  0  0  0  0  0  0
   -0.7500   -3.7417    0.0000 C   0  0  0  0  0  0  0  0  0  0  0  0
    1.1833   -6.5625    0.0000 C   0  0  0  0  0  0  0  0  0  0  0  0
    1.1750   -4.4375    0.0000 C   0  0  0  0  0  0  0  0  0  0  0  0
   -0.0458   -2.3375    0.0000 C   0  0  0  0  0  0  0  0  0  0  0  0
    0.4000   -9.2917    0.0000 C   0  0  0  0  0  0  0  0  0  0  0  0
    3.1125   -3.7417    0.0000 C   0  0  0  0  0  0  0  0  0  0  0  0
   -0.6583   -4.8042    0.0000 C   0  0  0  0  0  0  0  0  0  0  0  0
    0.0500   -6.7417    0.0000 C   0  0  0  0  0  0  0  0  0  0  0  0
    2.4042   -2.3292    0.0000 C   0  0  0  0  0  0  0  0  0  0  0  0
    2.9958   -8.4333    0.0000 C   0  0  0  0  0  0  0  0  0  0  0  0
    1.9333   -7.8208    0.0000 C   0  0  0  0  0  0  0  0  0  0  0  0
    2.6417   -5.3667    0.0000 C   0  0  0  0  0  0  0  0  0  0  0  0
   -0.8250   -8.5708    0.0000 C   0  0  0  0  0  0  0  0  0  0  0  0
   -1.2708   -4.4500    0.0000 C   0  0  0  0  0  0  0  0  0  0  0  0
    4.6667   -6.9500    0.0000 H   0  0  0  0  0  0  0  0  0  0  0  0
    3.1125   -4.4417    0.0000 H   0  0  0  0  0  0  0  0  0  0  0  0
    2.0708   -8.3250    0.0000 H   0  0  0  0  0  0  0  0  0  0  0  0
  2  1  2  0
  3  1  2  0
  4  1  1  0
  5  1  1  0
  6  5  1  0
  7  6  1  0
  8  9  1  0
  9 13  1  0
 10 16  1  0
 11 10  1  0
 12 11  1  0
 13 12  1  0
 14  7  1  0
 15 14  1  0
 16 15  1  0
 17  8  1  0
 19 25  1  0
 20 22  1  0
 21 28  1  0
 22 19  1  0
 23 18  1  0
 24 30  1  0
 25 24  1  0
 26 29  1  0
 27 20  1  0
 28 26  1  0
 29 42  1  0
 30 18  1  0
 31 35  1  0
 32 23  1  0
 33 24  1  0
 34 40  1  0
 35 34  1  0
 36 18  1  0
 37 34  1  0
 38 27  1  0
 39 41  1  0
 19 40  1  6
 41 37  1  0
 42 43  1  0
 43 33  1  0
 44 47  1  0
 32 45  1  1
 46 20  2  0
 47 36  1  0
 48 29  2  0
 21 49  1  1
 23 50  1  6
 33 51  1  1
 28 52  1  1
 31 53  1  1
 39 54  1  1
 55 21  1  0
 22 56  1  1
 25 57  1  6
 26 58  1  1
 59 31  1  0
 60 33  1  0
 38 61  1  6
 41 62  1  6
 42 63  1  6
 64 45  1  0
 65 45  1  0
 47 66  1  1
 67 53  1  0
 68 61  1  0
 18 69  1  6
 24 70  1  1
 34 71  1  6
 44 32  1  0
 38 21  1  0
 39 31  1  0
M  END

> <chembl_id>
CHEMBL1200476

> <chembl_pref_name>
None

$$$$

     RDKit          2D

 74 75  0  0  0  0  0  0  0  0999 V2000
    3.0479   -0.9079    0.0000 C   0  0  0  0  0  0  0  0  0  0  0  0
    2.7488   -1.4344    0.0000 O   0  0  0  0  0  0  0  0  0  0  0  0
    2.7944   -0.4333    0.0000 O   0  0  0  0  0  0  0  0  0  0  0  0
    3.7499   -0.9079    0.0000 C   0  0  0  0  0  0  0  0  0  0  0  0
    4.0815   -1.3954    0.0000 C   0  0  0  0  0  0  0  0  0  0  0  0
    3.2234    0.2037    0.0000 C   0  0  0  0  0  0  0  0  0  0  0  0
    3.8084    0.2037    0.0000 C   0  0  0  0  0  0  0  0  0  0  0  0
    5.9146   -1.2784    0.0000 C   0  0  0  0  0  0  0  0  0  0  0  0
    5.8300   -2.4029    0.0000 C   0  0  0  0  0  0  0  0  0  0  0  0
    5.6026   -0.8104    0.0000 C   0  0  0  0  0  0  0  0  0  0  0  0
    6.4021   -2.4290    0.0000 C   0  0  0  0  0  0  0  0  0  0  0  0
    5.0110   -0.8104    0.0000 C   0  0  0  0  0  0  0  0  0  0  0  0
    5.5050   -1.9024    0.0000 C   0  0  0  0  0  0  0  0  0  0  0  0
    4.7055   -0.3033    0.0000 C   0  0  0  0  0  0  0  0  0  0  0  0
    6.8116   -1.7659    0.0000 C   0  0  0  0  0  0  0  0  0  0  0  0
    4.9200   -1.8829    0.0000 C   0  0  0  0  0  0  0  0  0  0  0  0
    4.1205   -0.3033    0.0000 C   0  0  0  0  0  0  0  0  0  0  0  0
    6.4801   -1.2784    0.0000 C   0  0  0  0  0  0  0  0  0  0  0  0
    4.6209   -1.3954    0.0000 C   0  0  0  0  0  0  0  0  0  0  0  0
    2.9504    0.6783    0.0000 C   0  0  0  0  0  0  0  0  0  0  0  0
    0.0642   -0.5373    0.0000 C   0  0  0  0  0  0  0  0  0  0  0  0
   -0.1179   -1.2784    0.0000 C   0  0  0  0  0  0  0  0  0  0  0  0
   -3.0170   -3.9045    0.0000 C   0  0  0  0  0  0  0  0  0  0  0  0
   -4.8111   -3.9306    0.0000 C   0  0  0  0  0  0  0  0  0  0  0  0
   -5.6757   -1.4539    0.0000 C   0  0  0  0  0  0  0  0  0  0  0  0
   -3.8946   -4.3986    0.0000 C   0  0  0  0  0  0  0  0  0  0  0  0
   -2.1850   -2.4290    0.0000 C   0  0  0  0  0  0  0  0  0  0  0  0
   -3.0170   -3.0465    0.0000 C   0  0  0  0  0  0  0  0  0  0  0  0
   -4.8306    0.0672    0.0000 C   0  0  0  0  0  0  0  0  0  0  0  0
   -4.8111   -2.9489    0.0000 O   0  0  0  0  0  0  0  0  0  0  0  0
   -4.8306   -0.7843    0.0000 C   0  0  0  0  0  0  0  0  0  0  0  0
    0.8767   -0.3943    0.0000 C   0  0  0  0  0  0  0  0  0  0  0  0
   -4.0181    0.6393    0.0000 C   0  0  0  0  0  0  0  0  0  0  0  0
   -1.0669   -1.9024    0.0000 O   0  0  0  0  0  0  0  0  0  0  0  0
   -0.1503   -3.9045    0.0000 C   0  0  0  0  0  0  0  0  0  0  0  0
   -2.1850   -1.4344    0.0000 C   0  0  0  0  0  0  0  0  0  0  0  0
   -1.2814   -4.5480    0.0000 C   0  0  0  0  0  0  0  0  0  0  0  0
   -0.9174   -3.8721    0.0000 C   0  0  0  0  0  0  0  0  0  0  0  0
    0.3762   -1.8634    0.0000 O   0  0  0  0  0  0  0  0  0  0  0  0
   -0.9174   -5.1981    0.0000 O   0  0  0  0  0  0  0  0  0  0  0  0
   -5.6757   -2.4809    0.0000 C   0  0  0  0  0  0  0  0  0  0  0  0
    0.2202   -4.5871    0.0000 C   0  0  0  0  0  0  0  0  0  0  0  0
   -2.1460   -4.0866    0.0000 O   0  0  0  0  0  0  0  0  0  0  0  0
   -0.1179   -5.1981    0.0000 C   0  0  0  0  0  0  0  0  0  0  0  0
   -3.0821    0.0933    0.0000 C   0  0  0  0  0  0  0  0  0  0  0  0
    0.0057    0.3207    0.0000 O   0  0  0  0  0  0  0  0  0  0  0  0
   -3.0821   -0.7843    0.0000 C   0  0  0  0  0  0  0  0  0  0  0  0
    1.3837   -0.9664    0.0000 C   0  0  0  0  0  0  0  0  0  0  0  0
    0.8182    1.2438    0.0000 C   0  0  0  0  0  0  0  0  0  0  0  0
    1.4293    0.3402    0.0000 N   0  0  0  0  0  0  0  0  0  0  0  0
   -5.3637   -4.5156    0.0000 O   0  0  0  0  0  0  0  0  0  0  0  0
    1.0978   -1.7269    0.0000 C   0  0  0  0  0  0  0  0  0  0  0  0
   -4.0181    1.4973    0.0000 O   0  0  0  0  0  0  0  0  0  0  0  0
    1.6828    1.4713    0.0000 O   0  0  0  0  0  0  0  0  0  0  0  0
   -6.6443   -1.0573    0.0000 O   0  0  0  0  0  0  0  0  0  0  0  0
   -2.1005   -0.1278    0.0000 O   0  0  0  0  0  0  0  0  0  0  0  0
   -3.9401   -1.2979    0.0000 O   0  0  0  0  0  0  0  0  0  0  0  0
   -0.3258   -2.9684    0.0000 O   0  0  0  0  0  0  0  0  0  0  0  0
    1.3123   -4.5156    0.0000 O   0  0  0  0  0  0  0  0  0  0  0  0
   -6.7223   -2.2730    0.0000 C   0  0  0  0  0  0  0  0  0  0  0  0
   -3.8946   -5.3281    0.0000 C   0  0  0  0  0  0  0  0  0  0  0  0
   -3.7646   -2.3510    0.0000 C   0  0  0  0  0  0  0  0  0  0  0  0
   -5.7082    0.6588    0.0000 C   0  0  0  0  0  0  0  0  0  0  0  0
    0.9222   -3.6900    0.0000 C   0  0  0  0  0  0  0  0  0  0  0  0
   -1.3399   -0.7843    0.0000 C   0  0  0  0  0  0  0  0  0  0  0  0
   -6.2152   -3.2220    0.0000 C   0  0  0  0  0  0  0  0  0  0  0  0
    0.8767   -5.3932    0.0000 C   0  0  0  0  0  0  0  0  0  0  0  0
   -2.1005    0.9838    0.0000 C   0  0  0  0  0  0  0  0  0  0  0  0
    0.3177    1.8613    0.0000 C   0  0  0  0  0  0  0  0  0  0  0  0
    0.9612    0.7302    0.0000 C   0  0  0  0  0  0  0  0  0  0  0  0
    2.1118    0.5742    0.0000 C   0  0  0  0  0  0  0  0  0  0  0  0
    1.7737   -2.5070    0.0000 C   0  0  0  0  0  0  0  0  0  0  0  0
   -1.0279   -2.5850    0.0000 C   0  0  0  0  0  0  0  0  0  0  0  0
   -6.6443   -3.9306    0.0000 C   0  0  0  0  0  0  0  0  0  0  0  0
  2  1  2  0
  3  1  1  0
  4  1  1  0
  5  4  1  0
  6  7  1  0
  7 17  1  0
  8 18  1  0
  9 13  1  0
 10  8  1  0
 11  9  1  0
 12 10  1  0
 13 16  1  0
 14 12  1  0
 15 11  1  0
 16 19  1  0
 17 14  1  0
 18 15  1  0
 19  5  1  0
 20  6  1  0
 22 21  1  0
 23 28  1  0
 24 26  1  0
 25 31  1  0
 26 23  1  0
 27 34  1  6
 28 27  1  0
 29 33  1  0
 30 24  1  0
 31 29  1  0
 32 21  1  0
 33 45  1  0
 22 34  1  1
 35 38  1  0
 36 27  1  0
 37 43  1  1
 38 37  1  0
 39 22  1  0
 40 37  1  0
 41 30  1  0
 42 35  1  0
 23 43  1  6
 44 40  1  0
 45 47  1  0
 21 46  1  6
 47 36  1  0
 48 32  1  0
 49 46  1  0
 32 50  1  1
 51 24  2  0
 52 48  1  0
 53 33  2  0
 54 49  2  0
 25 55  1  1
 36 56  1  1
 31 57  1  1
 35 58  1  1
 42 59  1  1
 25 60  1  6
 26 61  1  1
 28 62  1  6
 29 63  1  1
 35 64  1  6
 36 65  1  6
 41 66  1  6
 44 67  1  6
 45 68  1  6
 69 49  1  0
 70 50  1  0
 71 50  1  0
 52 72  1  1
 73 58  1  0
 74 66  1  0
 39 52  1  0
 41 25  1  0
 44 42  1  0
M  END

> <chembl_id>
CHEMBL1908310

> <chembl_pref_name>
ERYTHROMYCIN ACISTRATE

$$$$

     RDKit          2D

 55 57  0  0  1  0  0  0  0  0999 V2000
    4.7272   -7.6908    0.0000 C   0  0  0  0  0  0  0  0  0  0  0  0
    2.0891   -6.4131    0.0000 C   0  0  0  0  0  0  0  0  0  0  0  0
    0.6608   -6.4180    0.0000 C   0  0  0  0  0  0  0  0  0  0  0  0
   -0.0534   -4.3629    0.0000 C   0  0  0  0  0  0  0  0  0  0  0  0
    1.3750   -6.8261    0.0000 C   0  0  0  0  0  0  0  0  0  0  0  0
    4.3191   -8.4002    0.0000 C   0  0  0  0  0  0  0  0  0  0  0  0
    2.8033   -5.1791    0.0000 C   0  0  0  0  0  0  0  0  0  0  0  0
    2.0891   -5.5872    0.0000 C   0  0  0  0  0  0  0  0  0  0  0  0
    0.6608   -3.1386    0.0000 C   0  0  0  0  0  0  0  0  0  0  0  0
    0.6608   -5.5969    0.0000 O   0  0  0  0  0  0  0  0  0  0  0  0
    0.6608   -3.9548    0.0000 C   0  0  0  0  0  0  0  0  0  0  0  0
    1.3750   -2.7255    0.0000 C   0  0  0  0  0  0  0  0  0  0  0  0
    4.7223   -6.5929    0.0000 O   0  0  0  0  0  0  0  0  0  0  0  0
    0.4713  -10.0034    0.0000 C   0  0  0  0  0  0  0  0  0  0  0  0
    3.4884   -8.4002    0.0000 C   0  0  0  0  0  0  0  0  0  0  0  0
    2.8033   -4.3629    0.0000 C   0  0  0  0  0  0  0  0  0  0  0  0
    1.7053   -9.2940    0.0000 C   0  0  0  0  0  0  0  0  0  0  0  0
    1.2972  -10.0034    0.0000 C   0  0  0  0  0  0  0  0  0  0  0  0
    4.3191   -6.9766    0.0000 O   0  0  0  0  0  0  0  0  0  0  0  0
    1.2972   -8.5799    0.0000 O   0  0  0  0  0  0  0  0  0  0  0  0
   -0.0534   -5.1838    0.0000 C   0  0  0  0  0  0  0  0  0  0  0  0
    0.0534   -9.2940    0.0000 C   0  0  0  0  0  0  0  0  0  0  0  0
    2.8033   -6.8212    0.0000 O   0  0  0  0  0  0  0  0  0  0  0  0
    0.4713   -8.5799    0.0000 C   0  0  0  0  0  0  0  0  0  0  0  0
    2.0891   -3.1337    0.0000 C   0  0  0  0  0  0  0  0  0  0  0  0
    2.0891   -3.9548    0.0000 C   0  0  0  0  0  0  0  0  0  0  0  0
    3.0754   -7.6908    0.0000 C   0  0  0  0  0  0  0  0  0  0  0  0
    3.0803   -9.1191    0.0000 N   0  0  0  0  0  0  0  0  0  0  0  0
   -0.0534   -6.8308    0.0000 O   0  0  0  0  0  0  0  0  0  0  0  0
    3.4884   -6.9766    0.0000 C   0  0  0  0  0  0  0  0  0  0  0  0
    1.3701   -1.8997    0.0000 O   0  0  0  0  0  0  0  0  0  0  0  0
   -0.4664   -3.6438    0.0000 O   0  0  0  0  0  0  0  0  0  0  0  0
    4.7272   -9.1191    0.0000 O   0  0  0  0  0  0  0  0  0  0  0  0
    3.2114   -3.6438    0.0000 O   0  0  0  0  0  0  0  0  0  0  0  0
    1.3750   -4.3725    0.0000 O   0  0  0  0  0  0  0  0  0  0  0  0
   -0.2478  -10.4115    0.0000 O   0  0  0  0  0  0  0  0  0  0  0  0
   -0.7725   -9.2940    0.0000 O   0  0  0  0  0  0  0  0  0  0  0  0
   -0.8745   -4.3629    0.0000 C   0  0  0  0  0  0  0  0  0  0  0  0
    1.3797   -7.6519    0.0000 C   0  0  0  0  0  0  0  0  0  0  0  0
    1.3701   -5.1742    0.0000 C   0  0  0  0  0  0  0  0  0  0  0  0
   -0.0534   -2.7255    0.0000 C   0  0  0  0  0  0  0  0  0  0  0  0
    0.4664  -10.8342    0.0000 C   0  0  0  0  0  0  0  0  0  0  0  0
    3.6292   -4.3629    0.0000 C   0  0  0  0  0  0  0  0  0  0  0  0
   -0.7676   -5.6017    0.0000 C   0  0  0  0  0  0  0  0  0  0  0  0
    0.0583   -7.8609    0.0000 C   0  0  0  0  0  0  0  0  0  0  0  0
    2.8033   -2.7159    0.0000 C   0  0  0  0  0  0  0  0  0  0  0  0
    3.4931   -9.8333    0.0000 C   0  0  0  0  0  0  0  0  0  0  0  0
    2.2542   -9.1191    0.0000 C   0  0  0  0  0  0  0  0  0  0  0  0
    3.0803   -6.2576    0.0000 C   0  0  0  0  0  0  0  0  0  0  0  0
   -0.9620   -9.9936    0.0000 C   0  0  0  0  0  0  0  0  0  0  0  0
   -1.4818   -5.1887    0.0000 C   0  0  0  0  0  0  0  0  0  0  0  0
    5.5522   -9.1191    0.0000 C   0  0  0  0  0  0  0  0  0  0  0  0
    5.9647   -9.8336    0.0000 C   0  0  0  0  0  0  0  0  0  0  0  0
    5.9647   -8.4047    0.0000 O   0  0  0  0  0  0  0  0  0  0  0  0
    6.7897   -9.8336    0.0000 C   0  0  0  0  0  0  0  0  0  0  0  0
  2  8  1  0
  3  5  1  0
  4 11  1  0
  5  2  1  0
  6  1  1  0
  7 13  1  6
  8  7  1  0
  9 12  1  0
 10  3  1  0
 11  9  1  0
 12 25  1  0
  1 13  1  1
 14 18  1  0
 15  6  1  0
 16  7  1  0
 17 23  1  1
 18 17  1  0
 19  1  1  0
 20 17  1  0
 21 10  1  0
 22 24  1  0
  2 23  1  6
 24 20  1  0
 25 26  1  0
 26 16  1  0
 27 30  1  0
 15 28  1  1
 29  3  2  0
 30 19  1  0
 31 12  2  0
  4 32  1  1
  6 33  1  6
 16 34  1  1
 11 35  1  1
 14 36  1  0
 22 37  1  1
 38  4  1  0
  5 39  1  1
  8 40  1  6
  9 41  1  1
 14 42  1  6
 43 16  1  0
 21 44  1  6
 24 45  1  6
 25 46  1  6
 47 28  1  0
 48 28  1  0
 30 49  1  1
 50 36  1  0
 51 44  1  0
 27 15  1  0
 21  4  1  0
 22 14  1  0
 33 52  1  0
 52 53  1  0
 52 54  2  0
 53 55  1  0
M  END

> <chembl_id>
CHEMBL2220427

> <chembl_pref_name>
ERYTHROMYCIN PROPIONATE

$$$$

     RDKit          2D

 66 70  0  0  1  0  0  0  0  0999 V2000
   -1.2708   -2.7917    0.0000 C   0  0  0  0  0  0  0  0  0  0  0  0
   -1.2708   -1.9667    0.0000 C   0  0  0  0  0  0  0  0  0  0  0  0
   -2.6583   -2.3292    0.0000 C   0  0  0  0  0  0  0  0  0  0  0  0
   -2.0708   -1.7500    0.0000 N   0  0  0  0  0  0  0  0  0  0  0  0
   -1.9875   -3.2000    0.0000 O   0  0  0  0  0  0  0  0  0  0  0  0
    3.1250   -1.5625    0.0000 C   0  0  0  0  0  0  0  0  0  0  0  0
   -0.5583   -1.5542    0.0000 C   0  0  0  0  0  0  0  0  0  0  0  0
    0.8667   -3.2125    0.0000 C   0  0  0  0  0  0  0  0  0  0  0  0
    0.1417   -4.4417    0.0000 C   0  0  0  0  0  0  0  0  0  0  0  0
    3.1167   -0.7375    0.0000 C   0  0  0  0  0  0  0  0  0  0  0  0
    3.8292   -0.3167    0.0000 C   0  0  0  0  0  0  0  0  0  0  0  0
    0.8625   -4.0375    0.0000 C   0  0  0  0  0  0  0  0  0  0  0  0
    1.5875   -1.9792    0.0000 C   0  0  0  0  0  0  0  0  0  0  0  0
    1.5792   -2.8042    0.0000 C   0  0  0  0  0  0  0  0  0  0  0  0
   -0.5500   -0.7292    0.0000 C   0  0  0  0  0  0  0  0  0  0  0  0
   -0.5708   -4.0292    0.0000 O   0  0  0  0  0  0  0  0  0  0  0  0
    2.4125   -1.9792    0.0000 O   0  0  0  0  0  0  0  0  0  0  0  0
    3.3750   -4.8417    0.0000 C   0  0  0  0  0  0  0  0  0  0  0  0
    0.8750   -1.5625    0.0000 C   0  0  0  0  0  0  0  0  0  0  0  0
   -0.5625   -3.2042    0.0000 C   0  0  0  0  0  0  0  0  0  0  0  0
    2.3750   -3.8375    0.0000 C   0  0  0  0  0  0  0  0  0  0  0  0
    2.5792   -4.6292    0.0000 C   0  0  0  0  0  0  0  0  0  0  0  0
    3.8417   -1.9667    0.0000 O   0  0  0  0  0  0  0  0  0  0  0  0
    2.9542   -3.2500    0.0000 O   0  0  0  0  0  0  0  0  0  0  0  0
    3.8292    0.5083    0.0000 N   0  0  0  0  0  0  0  0  0  0  0  0
    3.9625   -4.2667    0.0000 C   0  0  0  0  0  0  0  0  0  0  0  0
    1.5792   -3.6250    0.0000 O   0  0  0  0  0  0  0  0  0  0  0  0
    3.7500   -3.4667    0.0000 C   0  0  0  0  0  0  0  0  0  0  0  0
    0.1667   -0.3167    0.0000 C   0  0  0  0  0  0  0  0  0  0  0  0
    0.8792   -0.7375    0.0000 C   0  0  0  0  0  0  0  0  0  0  0  0
    4.5500   -0.7292    0.0000 C   0  0  0  0  0  0  0  0  0  0  0  0
   -2.2833   -0.9500    0.0000 C   0  0  0  0  0  0  0  0  0  0  0  0
   -3.4833   -2.3250    0.0000 O   0  0  0  0  0  0  0  0  0  0  0  0
    0.1417   -5.2667    0.0000 O   0  0  0  0  0  0  0  0  0  0  0  0
    4.5500   -1.5542    0.0000 C   0  0  0  0  0  0  0  0  0  0  0  0
   -1.2583   -0.3167    0.0000 O   0  0  0  0  0  0  0  0  0  0  0  0
    2.5292   -0.1500    0.0000 O   0  0  0  0  0  0  0  0  0  0  0  0
   -1.6875   -3.5042    0.0000 C   0  0  0  0  0  0  0  0  0  0  0  0
    4.5375    0.9250    0.0000 C   0  0  0  0  0  0  0  0  0  0  0  0
    3.9542   -5.4292    0.0000 O   0  0  0  0  0  0  0  0  0  0  0  0
    1.4542   -0.9750    0.0000 O   0  0  0  0  0  0  0  0  0  0  0  0
    4.7542   -4.4792    0.0000 O   0  0  0  0  0  0  0  0  0  0  0  0
   -3.0750   -0.7292    0.0000 C   0  0  0  0  0  0  0  0  0  0  0  0
   -1.2708   -1.1417    0.0000 C   0  0  0  0  0  0  0  0  0  0  0  0
   -3.7083    1.6583    0.0000 C   0  0  0  0  0  0  0  0  0  0  0  0
   -3.2875    0.0625    0.0000 C   0  0  0  0  0  0  0  0  0  0  0  0
    1.5750   -4.4542    0.0000 C   0  0  0  0  0  0  0  0  0  0  0  0
    2.2917   -3.2167    0.0000 C   0  0  0  0  0  0  0  0  0  0  0  0
   -3.9208    2.4458    0.0000 Cl  0  0  0  0  0  0  0  0  0  0  0  0
    2.9542   -5.5542    0.0000 C   0  0  0  0  0  0  0  0  0  0  0  0
    1.7000   -1.5625    0.0000 C   0  0  0  0  0  0  0  0  0  0  0  0
   -4.2958    1.0708    0.0000 C   0  0  0  0  0  0  0  0  0  0  0  0
   -2.9125    1.4375    0.0000 C   0  0  0  0  0  0  0  0  0  0  0  0
   -4.0833    0.2708    0.0000 C   0  0  0  0  0  0  0  0  0  0  0  0
   -2.7000    0.6458    0.0000 C   0  0  0  0  0  0  0  0  0  0  0  0
    3.1042    0.9125    0.0000 C   0  0  0  0  0  0  0  0  0  0  0  0
   -1.2833   -3.6125    0.0000 C   0  0  0  0  0  0  0  0  0  0  0  0
    4.3292   -2.8875    0.0000 C   0  0  0  0  0  0  0  0  0  0  0  0
    0.1667    0.5083    0.0000 C   0  0  0  0  0  0  0  0  0  0  0  0
    5.2667   -1.9667    0.0000 C   0  0  0  0  0  0  0  0  0  0  0  0
    4.5292    1.7500    0.0000 C   0  0  0  0  0  0  0  0  0  0  0  0
    5.2542    0.5208    0.0000 C   0  0  0  0  0  0  0  0  0  0  0  0
    3.9542   -6.2542    0.0000 C   0  0  0  0  0  0  0  0  0  0  0  0
    1.4542   -0.1500    0.0000 C   0  0  0  0  0  0  0  0  0  0  0  0
   -1.2833   -4.4375    0.0000 C   0  0  0  0  0  0  0  0  0  0  0  0
   -1.4006   -0.9752    0.0000 H   0  0  0  0  0  0  0  0  0  0  0  0
  2  1  1  0
  3  5  1  0
  2  4  1  0
  1  5  1  0
 17  6  1  0
  7  2  1  0
  8 12  1  0
  9 16  1  0
 10  6  1  0
 11 10  1  0
 12  9  1  0
 13 14  1  0
 14  8  1  0
 15  7  1  0
 16 20  1  0
 13 17  1  6
 18 22  1  0
 19 30  1  0
 20  1  1  0
 27 21  1  0
 22 21  1  0
 23  6  1  0
 24 21  1  0
 11 25  1  1
 26 28  1  0
  8 27  1  1
 28 24  1  0
 29 15  1  0
 30 29  1  0
 31 35  1  0
 32  4  1  0
 33  3  2  0
 34  9  2  0
 35 23  1  0
 36 15  2  0
 10 37  1  6
  1 38  1  6
 39 25  1  0
 18 40  1  0
 19 41  1  0
 26 42  1  6
 43 32  1  0
  7 44  1  6
 45 53  2  0
 46 43  1  0
 12 47  1  1
 14 48  1  1
 49 45  1  0
 18 50  1  1
 19 51  1  1
 52 54  2  0
 53 55  1  0
 54 46  1  0
 55 46  2  0
 56 25  1  0
 20 57  1  1
 28 58  1  1
 29 59  1  6
 35 60  1  1
 61 39  1  0
 62 39  1  0
 63 40  1  0
 64 41  1  0
 65 57  1  0
  3  4  1  0
 13 19  1  0
 52 45  1  0
 26 18  1  0
 31 11  1  0
  2 66  1  1
M  END

> <chembl_id>
CHEMBL273387

> <chembl_pref_name>
None

$$$$

     RDKit          2D

 65 69  0  0  1  0  0  0  0  0999 V2000
    2.5167   -5.1042    0.0000 N   0  0  0  0  0  0  0  0  0  0  0  0
   -1.3458   -3.2667    0.0000 C   0  0  0  0  0  0  0  0  0  0  0  0
    2.2250   -5.8792    0.0000 C   0  0  0  0  0  0  0  0  0  0  0  0
    2.3042   -4.3125    0.0000 C   0  0  0  0  0  0  0  0  0  0  0  0
   -1.3375   -2.4417    0.0000 C   0  0  0  0  0  0  0  0  0  0  0  0
   -2.7250   -2.8042    0.0000 C   0  0  0  0  0  0  0  0  0  0  0  0
   -2.1375   -2.2250    0.0000 N   0  0  0  0  0  0  0  0  0  0  0  0
   -2.0583   -3.6750    0.0000 O   0  0  0  0  0  0  0  0  0  0  0  0
    0.7917   -3.6875    0.0000 C   0  0  0  0  0  0  0  0  0  0  0  0
    3.0542   -2.0375    0.0000 C   0  0  0  0  0  0  0  0  0  0  0  0
   -0.6250   -2.0292    0.0000 C   0  0  0  0  0  0  0  0  0  0  0  0
    0.0750   -4.9167    0.0000 C   0  0  0  0  0  0  0  0  0  0  0  0
    3.0417   -1.2125    0.0000 C   0  0  0  0  0  0  0  0  0  0  0  0
    3.7625   -0.7917    0.0000 C   0  0  0  0  0  0  0  0  0  0  0  0
    0.7917   -4.5042    0.0000 C   0  0  0  0  0  0  0  0  0  0  0  0
    1.5167   -2.4542    0.0000 C   0  0  0  0  0  0  0  0  0  0  0  0
    1.5042   -4.1000    0.0000 O   0  0  0  0  0  0  0  0  0  0  0  0
    2.8625   -6.4000    0.0000 O   0  0  0  0  0  0  0  0  0  0  0  0
    1.5125   -3.2792    0.0000 C   0  0  0  0  0  0  0  0  0  0  0  0
   -0.6208   -1.2042    0.0000 C   0  0  0  0  0  0  0  0  0  0  0  0
   -0.6375   -4.5042    0.0000 O   0  0  0  0  0  0  0  0  0  0  0  0
    2.3417   -2.4542    0.0000 O   0  0  0  0  0  0  0  0  0  0  0  0
    0.8042   -2.0375    0.0000 C   0  0  0  0  0  0  0  0  0  0  0  0
   -0.6333   -3.6792    0.0000 C   0  0  0  0  0  0  0  0  0  0  0  0
    3.3417   -5.1542    0.0000 C   0  0  0  0  0  0  0  0  0  0  0  0
    3.7667   -2.4417    0.0000 O   0  0  0  0  0  0  0  0  0  0  0  0
    3.7542    0.0333    0.0000 N   0  0  0  0  0  0  0  0  0  0  0  0
    3.5542   -5.9500    0.0000 C   0  0  0  0  0  0  0  0  0  0  0  0
    0.0917   -0.7917    0.0000 C   0  0  0  0  0  0  0  0  0  0  0  0
    0.8042   -1.2125    0.0000 C   0  0  0  0  0  0  0  0  0  0  0  0
    4.4792   -1.2042    0.0000 C   0  0  0  0  0  0  0  0  0  0  0  0
   -2.3500   -1.4250    0.0000 C   0  0  0  0  0  0  0  0  0  0  0  0
    1.4250   -6.0917    0.0000 O   0  0  0  0  0  0  0  0  0  0  0  0
    2.8875   -3.7250    0.0000 O   0  0  0  0  0  0  0  0  0  0  0  0
   -3.5500   -2.8000    0.0000 O   0  0  0  0  0  0  0  0  0  0  0  0
    0.0667   -5.7417    0.0000 O   0  0  0  0  0  0  0  0  0  0  0  0
    4.4792   -2.0292    0.0000 C   0  0  0  0  0  0  0  0  0  0  0  0
   -1.3333   -0.7917    0.0000 O   0  0  0  0  0  0  0  0  0  0  0  0
    2.4542   -0.6250    0.0000 O   0  0  0  0  0  0  0  0  0  0  0  0
   -1.7583   -3.9792    0.0000 C   0  0  0  0  0  0  0  0  0  0  0  0
    4.4667    0.4500    0.0000 C   0  0  0  0  0  0  0  0  0  0  0  0
    1.3875   -1.4500    0.0000 O   0  0  0  0  0  0  0  0  0  0  0  0
   -3.1458   -1.2042    0.0000 C   0  0  0  0  0  0  0  0  0  0  0  0
   -1.3458   -1.6167    0.0000 C   0  0  0  0  0  0  0  0  0  0  0  0
   -3.7833    1.1833    0.0000 C   0  0  0  0  0  0  0  0  0  0  0  0
   -3.3583   -0.4125    0.0000 C   0  0  0  0  0  0  0  0  0  0  0  0
    1.5042   -4.9292    0.0000 C   0  0  0  0  0  0  0  0  0  0  0  0
    2.2250   -3.6917    0.0000 C   0  0  0  0  0  0  0  0  0  0  0  0
   -3.9958    1.9708    0.0000 Cl  0  0  0  0  0  0  0  0  0  0  0  0
    1.6292   -2.0375    0.0000 C   0  0  0  0  0  0  0  0  0  0  0  0
   -2.9833    0.9625    0.0000 C   0  0  0  0  0  0  0  0  0  0  0  0
   -4.3708    0.5958    0.0000 C   0  0  0  0  0  0  0  0  0  0  0  0
   -2.7708    0.1708    0.0000 C   0  0  0  0  0  0  0  0  0  0  0  0
   -4.1583   -0.2042    0.0000 C   0  0  0  0  0  0  0  0  0  0  0  0
    3.0375    0.4375    0.0000 C   0  0  0  0  0  0  0  0  0  0  0  0
    3.7542   -4.4375    0.0000 C   0  0  0  0  0  0  0  0  0  0  0  0
   -1.3500   -4.0875    0.0000 C   0  0  0  0  0  0  0  0  0  0  0  0
    4.3500   -6.1625    0.0000 C   0  0  0  0  0  0  0  0  0  0  0  0
    0.1000    0.0333    0.0000 C   0  0  0  0  0  0  0  0  0  0  0  0
    5.1917   -2.4417    0.0000 C   0  0  0  0  0  0  0  0  0  0  0  0
    4.4625    1.2750    0.0000 C   0  0  0  0  0  0  0  0  0  0  0  0
    5.1792    0.0458    0.0000 C   0  0  0  0  0  0  0  0  0  0  0  0
    1.3792   -0.6250    0.0000 C   0  0  0  0  0  0  0  0  0  0  0  0
   -1.3583   -4.9125    0.0000 C   0  0  0  0  0  0  0  0  0  0  0  0
   -1.4673   -1.4502    0.0000 H   0  0  0  0  0  0  0  0  0  0  0  0
  2 24  1  0
  3  1  1  0
  4  1  1  0
  5  2  1  0
  6  8  1  0
  5  7  1  0
  2  8  1  0
  9 17  1  1
 22 10  1  0
 11 20  1  0
 12 15  1  0
 13 10  1  0
 14 13  1  0
 15  9  1  0
 16 19  1  0
 17  4  1  0
 18  3  1  0
 19  9  1  0
 20 29  1  0
 21 12  1  0
 16 22  1  6
 23 16  1  0
 24 21  1  0
 25  1  1  0
 26 10  1  0
 14 27  1  1
 28 25  1  0
 29 30  1  0
 30 23  1  0
 31 37  1  0
 32  7  1  0
 33  3  2  0
 34  4  2  0
 35  6  2  0
 36 12  2  0
 37 26  1  0
 38 20  2  0
 13 39  1  6
  2 40  1  6
 41 27  1  0
 23 42  1  0
 43 32  1  0
 11 44  1  6
 45 52  1  0
 46 43  1  0
 15 47  1  1
 19 48  1  1
 49 45  1  0
 23 50  1  1
 51 53  1  0
 52 54  2  0
 53 46  2  0
 54 46  1  0
 55 27  1  0
 25 56  1  1
 24 57  1  1
 28 58  1  1
 29 59  1  6
 37 60  1  1
 61 41  1  0
 62 41  1  0
 63 42  1  0
 64 57  1  0
 28 18  1  0
 11  5  1  0
 31 14  1  0
  6  7  1  0
 45 51  2  0
  5 65  1  1
M  END

> <chembl_id>
CHEMBL273535

> <chembl_pref_name>
None

$$$$

     RDKit          2D

 62 66  0  0  1  0  0  0  0  0999 V2000
   -0.2208   -4.3417    0.0000 C   0  0  0  0  0  0  0  0  0  0  0  0
   -0.2208   -3.5167    0.0000 C   0  0  0  0  0  0  0  0  0  0  0  0
   -1.6083   -3.8792    0.0000 C   0  0  0  0  0  0  0  0  0  0  0  0
   -1.0208   -3.3042    0.0000 N   0  0  0  0  0  0  0  0  0  0  0  0
   -0.9375   -4.7542    0.0000 O   0  0  0  0  0  0  0  0  0  0  0  0
    1.9167   -4.7667    0.0000 C   0  0  0  0  0  0  0  0  0  0  0  0
    4.1750   -3.1167    0.0000 C   0  0  0  0  0  0  0  0  0  0  0  0
    0.4917   -3.1042    0.0000 C   0  0  0  0  0  0  0  0  0  0  0  0
    1.1917   -6.0000    0.0000 C   0  0  0  0  0  0  0  0  0  0  0  0
    4.1667   -2.2917    0.0000 C   0  0  0  0  0  0  0  0  0  0  0  0
    4.8792   -1.8750    0.0000 C   0  0  0  0  0  0  0  0  0  0  0  0
    1.9125   -5.5917    0.0000 C   0  0  0  0  0  0  0  0  0  0  0  0
    2.6375   -3.5292    0.0000 C   0  0  0  0  0  0  0  0  0  0  0  0
    2.6292   -4.3542    0.0000 C   0  0  0  0  0  0  0  0  0  0  0  0
    0.5000   -2.2792    0.0000 C   0  0  0  0  0  0  0  0  0  0  0  0
    0.4792   -5.5792    0.0000 O   0  0  0  0  0  0  0  0  0  0  0  0
    3.4625   -3.5292    0.0000 O   0  0  0  0  0  0  0  0  0  0  0  0
    2.6292   -5.1792    0.0000 O   0  0  0  0  0  0  0  0  0  0  0  0
    1.9250   -3.1167    0.0000 C   0  0  0  0  0  0  0  0  0  0  0  0
    3.4250   -5.3917    0.0000 C   0  0  0  0  0  0  0  0  0  0  0  0
    0.4875   -4.7542    0.0000 C   0  0  0  0  0  0  0  0  0  0  0  0
    4.8917   -3.5250    0.0000 O   0  0  0  0  0  0  0  0  0  0  0  0
    4.8792   -1.0500    0.0000 N   0  0  0  0  0  0  0  0  0  0  0  0
    1.2167   -1.8750    0.0000 C   0  0  0  0  0  0  0  0  0  0  0  0
    1.9292   -2.2917    0.0000 C   0  0  0  0  0  0  0  0  0  0  0  0
    5.6000   -2.2875    0.0000 C   0  0  0  0  0  0  0  0  0  0  0  0
   -1.2333   -2.5042    0.0000 C   0  0  0  0  0  0  0  0  0  0  0  0
    3.6375   -6.1875    0.0000 C   0  0  0  0  0  0  0  0  0  0  0  0
   -2.4333   -3.8792    0.0000 O   0  0  0  0  0  0  0  0  0  0  0  0
    1.1917   -6.8250    0.0000 O   0  0  0  0  0  0  0  0  0  0  0  0
    5.6000   -3.1125    0.0000 C   0  0  0  0  0  0  0  0  0  0  0  0
   -0.2083   -1.8667    0.0000 O   0  0  0  0  0  0  0  0  0  0  0  0
    4.0042   -4.8042    0.0000 O   0  0  0  0  0  0  0  0  0  0  0  0
    3.9417   -7.4875    0.0000 O   0  0  0  0  0  0  0  0  0  0  0  0
    3.5792   -1.7042    0.0000 O   0  0  0  0  0  0  0  0  0  0  0  0
   -0.6375   -5.0542    0.0000 C   0  0  0  0  0  0  0  0  0  0  0  0
    5.5875   -0.6292    0.0000 C   0  0  0  0  0  0  0  0  0  0  0  0
    2.5042   -2.5292    0.0000 O   0  0  0  0  0  0  0  0  0  0  0  0
   -2.0250   -2.2875    0.0000 C   0  0  0  0  0  0  0  0  0  0  0  0
   -0.2208   -2.6917    0.0000 C   0  0  0  0  0  0  0  0  0  0  0  0
   -2.6583    0.1000    0.0000 C   0  0  0  0  0  0  0  0  0  0  0  0
   -2.2375   -1.4917    0.0000 C   0  0  0  0  0  0  0  0  0  0  0  0
    2.6250   -6.0042    0.0000 C   0  0  0  0  0  0  0  0  0  0  0  0
    3.3167   -6.9417    0.0000 C   0  0  0  0  0  0  0  0  0  0  0  0
    3.3417   -4.7750    0.0000 C   0  0  0  0  0  0  0  0  0  0  0  0
   -2.8708    0.8958    0.0000 Cl  0  0  0  0  0  0  0  0  0  0  0  0
    2.7500   -3.1167    0.0000 C   0  0  0  0  0  0  0  0  0  0  0  0
   -1.8625   -0.1167    0.0000 C   0  0  0  0  0  0  0  0  0  0  0  0
   -3.2458   -0.4875    0.0000 C   0  0  0  0  0  0  0  0  0  0  0  0
   -1.6500   -0.9125    0.0000 C   0  0  0  0  0  0  0  0  0  0  0  0
   -3.0333   -1.2792    0.0000 C   0  0  0  0  0  0  0  0  0  0  0  0
    4.1542   -0.6417    0.0000 C   0  0  0  0  0  0  0  0  0  0  0  0
   -0.2333   -5.1667    0.0000 C   0  0  0  0  0  0  0  0  0  0  0  0
    4.4625   -6.2542    0.0000 C   0  0  0  0  0  0  0  0  0  0  0  0
    1.2167   -1.0500    0.0000 C   0  0  0  0  0  0  0  0  0  0  0  0
    4.6500   -7.0625    0.0000 C   0  0  0  0  0  0  0  0  0  0  0  0
    6.3167   -3.5250    0.0000 C   0  0  0  0  0  0  0  0  0  0  0  0
    5.5792    0.1958    0.0000 C   0  0  0  0  0  0  0  0  0  0  0  0
    6.3042   -1.0375    0.0000 C   0  0  0  0  0  0  0  0  0  0  0  0
    2.5042   -1.7042    0.0000 C   0  0  0  0  0  0  0  0  0  0  0  0
   -0.2333   -5.9917    0.0000 C   0  0  0  0  0  0  0  0  0  0  0  0
   -0.3530   -2.5255    0.0000 H   0  0  0  0  0  0  0  0  0  0  0  0
  2  1  1  0
  3  5  1  0
  2  4  1  0
  1  5  1  0
  6 12  1  0
 17  7  1  0
  8  2  1  0
  9 16  1  0
 10  7  1  0
 11 10  1  0
 12  9  1  0
 13 14  1  0
 14  6  1  0
 15  8  1  0
 16 21  1  0
 13 17  1  6
  6 18  1  1
 19 25  1  0
 20 18  1  0
 21  1  1  0
 22  7  1  0
 11 23  1  1
 24 15  1  0
 25 24  1  0
 26 31  1  0
 27  4  1  0
 28 20  1  0
 29  3  2  0
 30  9  2  0
 31 22  1  0
 32 15  2  0
 33 20  2  0
 34 44  1  0
 10 35  1  6
  1 36  1  6
 37 23  1  0
 19 38  1  0
 39 27  1  0
  8 40  1  6
 41 49  1  0
 42 39  1  0
 12 43  1  1
 44 28  1  0
 14 45  1  1
 46 41  1  0
 19 47  1  1
 48 50  1  0
 49 51  2  0
 50 42  2  0
 51 42  1  0
 52 23  1  0
 21 53  1  1
 54 28  1  0
 24 55  1  6
 56 54  1  0
 31 57  1  1
 58 37  1  0
 59 37  1  0
 60 38  1  0
 61 53  1  0
  3  4  1  0
 13 19  1  0
 41 48  2  0
 56 34  1  0
 26 11  1  0
  2 62  1  1
M  END

> <chembl_id>
CHEMBL268489

> <chembl_pref_name>
None

$$$$

     RDKit          2D

 63 67  0  0  1  0  0  0  0  0999 V2000
   -0.2208   -3.9792    0.0000 C   0  0  0  0  0  0  0  0  0  0  0  0
   -0.2208   -3.1542    0.0000 C   0  0  0  0  0  0  0  0  0  0  0  0
    3.6375   -5.8167    0.0000 N   0  0  0  0  0  0  0  0  0  0  0  0
   -1.6083   -3.5167    0.0000 C   0  0  0  0  0  0  0  0  0  0  0  0
   -1.0208   -2.9375    0.0000 N   0  0  0  0  0  0  0  0  0  0  0  0
   -0.9375   -4.3792    0.0000 O   0  0  0  0  0  0  0  0  0  0  0  0
    3.4250   -5.0250    0.0000 C   0  0  0  0  0  0  0  0  0  0  0  0
    1.9167   -4.4000    0.0000 C   0  0  0  0  0  0  0  0  0  0  0  0
    4.1750   -2.7500    0.0000 C   0  0  0  0  0  0  0  0  0  0  0  0
    0.4917   -2.7417    0.0000 C   0  0  0  0  0  0  0  0  0  0  0  0
    1.1917   -5.6292    0.0000 C   0  0  0  0  0  0  0  0  0  0  0  0
    4.1667   -1.9250    0.0000 C   0  0  0  0  0  0  0  0  0  0  0  0
    4.8792   -1.5042    0.0000 C   0  0  0  0  0  0  0  0  0  0  0  0
    1.9125   -5.2250    0.0000 C   0  0  0  0  0  0  0  0  0  0  0  0
    3.0917   -6.4417    0.0000 C   0  0  0  0  0  0  0  0  0  0  0  0
    2.6375   -3.1667    0.0000 C   0  0  0  0  0  0  0  0  0  0  0  0
    2.6292   -3.9917    0.0000 C   0  0  0  0  0  0  0  0  0  0  0  0
    2.6292   -4.8125    0.0000 O   0  0  0  0  0  0  0  0  0  0  0  0
    0.5000   -1.9167    0.0000 C   0  0  0  0  0  0  0  0  0  0  0  0
    0.4792   -5.2167    0.0000 O   0  0  0  0  0  0  0  0  0  0  0  0
    3.4625   -3.1667    0.0000 O   0  0  0  0  0  0  0  0  0  0  0  0
    1.9250   -2.7500    0.0000 C   0  0  0  0  0  0  0  0  0  0  0  0
    0.4875   -4.3917    0.0000 C   0  0  0  0  0  0  0  0  0  0  0  0
    4.8917   -3.1542    0.0000 O   0  0  0  0  0  0  0  0  0  0  0  0
    4.8792   -0.6792    0.0000 N   0  0  0  0  0  0  0  0  0  0  0  0
    1.2167   -1.5042    0.0000 C   0  0  0  0  0  0  0  0  0  0  0  0
    1.9292   -1.9250    0.0000 C   0  0  0  0  0  0  0  0  0  0  0  0
    5.6000   -1.9167    0.0000 C   0  0  0  0  0  0  0  0  0  0  0  0
   -1.2333   -2.1375    0.0000 C   0  0  0  0  0  0  0  0  0  0  0  0
    3.5125   -7.1542    0.0000 O   0  0  0  0  0  0  0  0  0  0  0  0
   -2.4333   -3.5125    0.0000 O   0  0  0  0  0  0  0  0  0  0  0  0
    4.0042   -4.4375    0.0000 O   0  0  0  0  0  0  0  0  0  0  0  0
    1.1917   -6.4542    0.0000 O   0  0  0  0  0  0  0  0  0  0  0  0
    5.6000   -2.7417    0.0000 C   0  0  0  0  0  0  0  0  0  0  0  0
    2.2667   -6.3667    0.0000 O   0  0  0  0  0  0  0  0  0  0  0  0
   -0.2083   -1.5042    0.0000 O   0  0  0  0  0  0  0  0  0  0  0  0
    3.5792   -1.3375    0.0000 O   0  0  0  0  0  0  0  0  0  0  0  0
   -0.6375   -4.6917    0.0000 C   0  0  0  0  0  0  0  0  0  0  0  0
    4.3917   -6.1542    0.0000 C   0  0  0  0  0  0  0  0  0  0  0  0
    5.5875   -0.2625    0.0000 C   0  0  0  0  0  0  0  0  0  0  0  0
    2.5042   -2.1625    0.0000 O   0  0  0  0  0  0  0  0  0  0  0  0
   -2.0250   -1.9167    0.0000 C   0  0  0  0  0  0  0  0  0  0  0  0
   -0.2208   -2.3292    0.0000 C   0  0  0  0  0  0  0  0  0  0  0  0
   -2.6583    0.4708    0.0000 C   0  0  0  0  0  0  0  0  0  0  0  0
   -2.2375   -1.1250    0.0000 C   0  0  0  0  0  0  0  0  0  0  0  0
    4.3167   -6.9750    0.0000 C   0  0  0  0  0  0  0  0  0  0  0  0
    2.6250   -5.6417    0.0000 C   0  0  0  0  0  0  0  0  0  0  0  0
    3.3417   -4.4042    0.0000 C   0  0  0  0  0  0  0  0  0  0  0  0
   -2.8708    1.2583    0.0000 Cl  0  0  0  0  0  0  0  0  0  0  0  0
    2.7500   -2.7500    0.0000 C   0  0  0  0  0  0  0  0  0  0  0  0
   -1.8625    0.2500    0.0000 C   0  0  0  0  0  0  0  0  0  0  0  0
   -3.2458   -0.1167    0.0000 C   0  0  0  0  0  0  0  0  0  0  0  0
   -1.6500   -0.5417    0.0000 C   0  0  0  0  0  0  0  0  0  0  0  0
   -3.0333   -0.9167    0.0000 C   0  0  0  0  0  0  0  0  0  0  0  0
    4.1542   -0.2750    0.0000 C   0  0  0  0  0  0  0  0  0  0  0  0
   -0.2333   -4.8000    0.0000 C   0  0  0  0  0  0  0  0  0  0  0  0
    1.2167   -0.6792    0.0000 C   0  0  0  0  0  0  0  0  0  0  0  0
    6.3167   -3.1542    0.0000 C   0  0  0  0  0  0  0  0  0  0  0  0
    5.5792    0.5625    0.0000 C   0  0  0  0  0  0  0  0  0  0  0  0
    6.3042   -0.6667    0.0000 C   0  0  0  0  0  0  0  0  0  0  0  0
    2.5042   -1.3375    0.0000 C   0  0  0  0  0  0  0  0  0  0  0  0
   -0.2333   -5.6250    0.0000 C   0  0  0  0  0  0  0  0  0  0  0  0
   -0.3506   -2.1627    0.0000 H   0  0  0  0  0  0  0  0  0  0  0  0
  2  1  1  0
  3  7  1  0
  4  6  1  0
  2  5  1  0
  1  6  1  0
  7 18  1  0
  8 14  1  0
 21  9  1  0
 10  2  1  0
 11 20  1  0
 12  9  1  0
 13 12  1  0
 14 11  1  0
 15  3  1  0
 16 17  1  0
 17  8  1  0
  8 18  1  1
 19 10  1  0
 20 23  1  0
 16 21  1  6
 22 27  1  0
 23  1  1  0
 24  9  1  0
 13 25  1  1
 26 19  1  0
 27 26  1  0
 28 34  1  0
 29  5  1  0
 30 15  1  0
 31  4  2  0
 32  7  2  0
 33 11  2  0
 34 24  1  0
 35 15  2  0
 36 19  2  0
 12 37  1  6
  1 38  1  6
 39  3  1  0
 40 25  1  0
 22 41  1  0
 42 29  1  0
 10 43  1  6
 44 52  1  0
 45 42  1  0
 46 39  1  0
 14 47  1  1
 17 48  1  1
 49 44  1  0
 22 50  1  1
 51 53  1  0
 52 54  2  0
 53 45  2  0
 54 45  1  0
 55 25  1  0
 23 56  1  1
 26 57  1  6
 34 58  1  1
 59 40  1  0
 60 40  1  0
 61 41  1  0
 62 56  1  0
  4  5  1  0
 16 22  1  0
 44 51  2  0
 46 30  1  0
 28 13  1  0
  2 63  1  1
M  END

> <chembl_id>
CHEMBL273466

> <chembl_pref_name>
None

$$$$

     RDKit          2D

 55 58  0  0  1  0  0  0  0  0999 V2000
   -1.3333   -2.7917    0.0000 C   0  0  0  0  0  0  0  0  0  0  0  0
   -1.3333   -1.9667    0.0000 C   0  0  0  0  0  0  0  0  0  0  0  0
   -2.7208   -2.3292    0.0000 C   0  0  0  0  0  0  0  0  0  0  0  0
   -2.1333   -1.7500    0.0000 N   0  0  0  0  0  0  0  0  0  0  0  0
   -2.0500   -3.2000    0.0000 O   0  0  0  0  0  0  0  0  0  0  0  0
    3.0625   -1.5625    0.0000 C   0  0  0  0  0  0  0  0  0  0  0  0
   -0.6208   -1.5542    0.0000 C   0  0  0  0  0  0  0  0  0  0  0  0
    0.0792   -4.4417    0.0000 C   0  0  0  0  0  0  0  0  0  0  0  0
    3.0542   -0.7375    0.0000 C   0  0  0  0  0  0  0  0  0  0  0  0
    3.7667   -0.3167    0.0000 C   0  0  0  0  0  0  0  0  0  0  0  0
    0.8000   -4.0375    0.0000 C   0  0  0  0  0  0  0  0  0  0  0  0
    1.5250   -1.9792    0.0000 C   0  0  0  0  0  0  0  0  0  0  0  0
   -0.6125   -0.7292    0.0000 C   0  0  0  0  0  0  0  0  0  0  0  0
    1.5167   -2.8042    0.0000 C   0  0  0  0  0  0  0  0  0  0  0  0
   -0.6333   -4.0292    0.0000 O   0  0  0  0  0  0  0  0  0  0  0  0
    0.8042   -3.2125    0.0000 C   0  0  0  0  0  0  0  0  0  0  0  0
    2.3500   -1.9792    0.0000 O   0  0  0  0  0  0  0  0  0  0  0  0
    0.8125   -1.5625    0.0000 C   0  0  0  0  0  0  0  0  0  0  0  0
   -0.6250   -3.2042    0.0000 C   0  0  0  0  0  0  0  0  0  0  0  0
    3.7792   -1.9667    0.0000 O   0  0  0  0  0  0  0  0  0  0  0  0
    3.7667    0.5083    0.0000 N   0  0  0  0  0  0  0  0  0  0  0  0
    0.1042   -0.3167    0.0000 C   0  0  0  0  0  0  0  0  0  0  0  0
    0.8167   -0.7375    0.0000 C   0  0  0  0  0  0  0  0  0  0  0  0
    4.4875   -0.7292    0.0000 C   0  0  0  0  0  0  0  0  0  0  0  0
   -2.3458   -0.9500    0.0000 C   0  0  0  0  0  0  0  0  0  0  0  0
   -3.5458   -2.3250    0.0000 O   0  0  0  0  0  0  0  0  0  0  0  0
    0.0792   -5.2667    0.0000 O   0  0  0  0  0  0  0  0  0  0  0  0
    4.4875   -1.5542    0.0000 C   0  0  0  0  0  0  0  0  0  0  0  0
   -1.3208   -0.3167    0.0000 O   0  0  0  0  0  0  0  0  0  0  0  0
    2.4667   -0.1500    0.0000 O   0  0  0  0  0  0  0  0  0  0  0  0
   -1.7500   -3.5042    0.0000 C   0  0  0  0  0  0  0  0  0  0  0  0
    4.4750    0.9250    0.0000 C   0  0  0  0  0  0  0  0  0  0  0  0
    1.5167   -3.6250    0.0000 O   0  0  0  0  0  0  0  0  0  0  0  0
    1.3917   -0.9750    0.0000 O   0  0  0  0  0  0  0  0  0  0  0  0
   -3.1375   -0.7292    0.0000 C   0  0  0  0  0  0  0  0  0  0  0  0
   -1.3333   -1.1417    0.0000 C   0  0  0  0  0  0  0  0  0  0  0  0
   -3.7708    1.6583    0.0000 C   0  0  0  0  0  0  0  0  0  0  0  0
   -3.3500    0.0625    0.0000 C   0  0  0  0  0  0  0  0  0  0  0  0
    1.5125   -4.4542    0.0000 C   0  0  0  0  0  0  0  0  0  0  0  0
    2.2292   -3.2167    0.0000 C   0  0  0  0  0  0  0  0  0  0  0  0
   -3.9833    2.4458    0.0000 Cl  0  0  0  0  0  0  0  0  0  0  0  0
    1.6375   -1.5625    0.0000 C   0  0  0  0  0  0  0  0  0  0  0  0
   -2.9750    1.4375    0.0000 C   0  0  0  0  0  0  0  0  0  0  0  0
   -4.3583    1.0708    0.0000 C   0  0  0  0  0  0  0  0  0  0  0  0
   -2.7625    0.6458    0.0000 C   0  0  0  0  0  0  0  0  0  0  0  0
   -4.1458    0.2708    0.0000 C   0  0  0  0  0  0  0  0  0  0  0  0
    3.0417    0.9125    0.0000 C   0  0  0  0  0  0  0  0  0  0  0  0
   -1.3458   -3.6125    0.0000 C   0  0  0  0  0  0  0  0  0  0  0  0
    0.1042    0.5083    0.0000 C   0  0  0  0  0  0  0  0  0  0  0  0
    5.2042   -1.9667    0.0000 C   0  0  0  0  0  0  0  0  0  0  0  0
    4.4667    1.7500    0.0000 C   0  0  0  0  0  0  0  0  0  0  0  0
    5.1917    0.5208    0.0000 C   0  0  0  0  0  0  0  0  0  0  0  0
    1.3917   -0.1500    0.0000 C   0  0  0  0  0  0  0  0  0  0  0  0
   -1.3458   -4.4375    0.0000 C   0  0  0  0  0  0  0  0  0  0  0  0
   -1.4631   -0.9752    0.0000 H   0  0  0  0  0  0  0  0  0  0  0  0
  2  1  1  0
  3  5  1  0
  2  4  1  0
  1  5  1  0
 17  6  1  0
  7  2  1  0
  8 15  1  0
  9  6  1  0
 10  9  1  0
 11  8  1  0
 12 14  1  0
 13  7  1  0
 14 16  1  0
 15 19  1  0
 16 11  1  0
 12 17  1  6
 18 23  1  0
 19  1  1  0
 20  6  1  0
 10 21  1  1
 22 13  1  0
 23 22  1  0
 24 28  1  0
 25  4  1  0
 26  3  2  0
 27  8  2  0
 28 20  1  0
 29 13  2  0
  9 30  1  6
  1 31  1  6
 32 21  1  0
 16 33  1  1
 18 34  1  0
 35 25  1  0
  7 36  1  6
 37 44  1  0
 38 35  1  0
 11 39  1  1
 14 40  1  1
 41 37  1  0
 18 42  1  1
 43 45  1  0
 44 46  2  0
 45 38  2  0
 46 38  1  0
 47 21  1  0
 19 48  1  1
 22 49  1  6
 28 50  1  1
 51 32  1  0
 52 32  1  0
 53 34  1  0
 54 48  1  0
  3  4  1  0
 12 18  1  0
 37 43  2  0
 24 10  1  0
  2 55  1  1
M  END

> <chembl_id>
CHEMBL12265

> <chembl_pref_name>
None

$$$$

     RDKit          2D

 61 64  0  0  1  0  0  0  0  0999 V2000
   -2.1833   -3.2667    0.0000 C   0  0  0  0  0  0  0  0  0  0  0  0
   -2.1833   -2.4417    0.0000 C   0  0  0  0  0  0  0  0  0  0  0  0
   -3.5708   -2.8042    0.0000 C   0  0  0  0  0  0  0  0  0  0  0  0
   -2.9833   -2.2250    0.0000 N   0  0  0  0  0  0  0  0  0  0  0  0
   -2.9000   -3.6750    0.0000 O   0  0  0  0  0  0  0  0  0  0  0  0
    2.2125   -2.0375    0.0000 C   0  0  0  0  0  0  0  0  0  0  0  0
   -1.4708   -2.0292    0.0000 C   0  0  0  0  0  0  0  0  0  0  0  0
   -0.0458   -3.6875    0.0000 C   0  0  0  0  0  0  0  0  0  0  0  0
   -0.7708   -4.9167    0.0000 C   0  0  0  0  0  0  0  0  0  0  0  0
    2.2042   -1.2125    0.0000 C   0  0  0  0  0  0  0  0  0  0  0  0
    2.9167   -0.7917    0.0000 C   0  0  0  0  0  0  0  0  0  0  0  0
   -0.0500   -4.5042    0.0000 C   0  0  0  0  0  0  0  0  0  0  0  0
    0.6750   -2.4542    0.0000 C   0  0  0  0  0  0  0  0  0  0  0  0
    0.6667   -3.2792    0.0000 C   0  0  0  0  0  0  0  0  0  0  0  0
   -1.4625   -1.2042    0.0000 C   0  0  0  0  0  0  0  0  0  0  0  0
   -1.4833   -4.5042    0.0000 O   0  0  0  0  0  0  0  0  0  0  0  0
    1.5000   -2.4542    0.0000 O   0  0  0  0  0  0  0  0  0  0  0  0
   -0.0375   -2.0375    0.0000 C   0  0  0  0  0  0  0  0  0  0  0  0
   -1.4750   -3.6792    0.0000 C   0  0  0  0  0  0  0  0  0  0  0  0
    2.9292   -2.4417    0.0000 O   0  0  0  0  0  0  0  0  0  0  0  0
    2.9167    0.0333    0.0000 N   0  0  0  0  0  0  0  0  0  0  0  0
   -0.7458   -0.7917    0.0000 C   0  0  0  0  0  0  0  0  0  0  0  0
    0.6667   -4.1000    0.0000 O   0  0  0  0  0  0  0  0  0  0  0  0
    1.4625   -4.3125    0.0000 C   0  0  0  0  0  0  0  0  0  0  0  0
   -0.0333   -1.2125    0.0000 C   0  0  0  0  0  0  0  0  0  0  0  0
    3.6375   -1.2042    0.0000 C   0  0  0  0  0  0  0  0  0  0  0  0
   -3.1958   -1.4250    0.0000 C   0  0  0  0  0  0  0  0  0  0  0  0
   -4.3958   -2.8000    0.0000 O   0  0  0  0  0  0  0  0  0  0  0  0
   -0.7708   -5.7417    0.0000 O   0  0  0  0  0  0  0  0  0  0  0  0
    3.6375   -2.0292    0.0000 C   0  0  0  0  0  0  0  0  0  0  0  0
   -2.1708   -0.7917    0.0000 O   0  0  0  0  0  0  0  0  0  0  0  0
    2.0417   -3.7250    0.0000 O   0  0  0  0  0  0  0  0  0  0  0  0
    1.6167   -0.6250    0.0000 O   0  0  0  0  0  0  0  0  0  0  0  0
   -2.6000   -3.9792    0.0000 C   0  0  0  0  0  0  0  0  0  0  0  0
    3.6250    0.4500    0.0000 C   0  0  0  0  0  0  0  0  0  0  0  0
    1.6750   -5.1042    0.0000 C   0  0  0  0  0  0  0  0  0  0  0  0
    0.5417   -1.4500    0.0000 O   0  0  0  0  0  0  0  0  0  0  0  0
   -3.9875   -1.2042    0.0000 C   0  0  0  0  0  0  0  0  0  0  0  0
   -2.1833   -1.6167    0.0000 C   0  0  0  0  0  0  0  0  0  0  0  0
   -4.6208    1.1833    0.0000 C   0  0  0  0  0  0  0  0  0  0  0  0
   -4.2083   -0.4125    0.0000 C   0  0  0  0  0  0  0  0  0  0  0  0
    0.6625   -4.9292    0.0000 C   0  0  0  0  0  0  0  0  0  0  0  0
    1.3792   -3.6917    0.0000 C   0  0  0  0  0  0  0  0  0  0  0  0
   -4.8333    1.9708    0.0000 Cl  0  0  0  0  0  0  0  0  0  0  0  0
    0.7875   -2.0375    0.0000 C   0  0  0  0  0  0  0  0  0  0  0  0
   -5.2083    0.5958    0.0000 C   0  0  0  0  0  0  0  0  0  0  0  0
   -3.8250    0.9625    0.0000 C   0  0  0  0  0  0  0  0  0  0  0  0
   -4.9958   -0.2042    0.0000 C   0  0  0  0  0  0  0  0  0  0  0  0
   -3.6125    0.1708    0.0000 C   0  0  0  0  0  0  0  0  0  0  0  0
    2.1917    0.4375    0.0000 C   0  0  0  0  0  0  0  0  0  0  0  0
   -2.1958   -4.0875    0.0000 C   0  0  0  0  0  0  0  0  0  0  0  0
   -0.7458    0.0333    0.0000 C   0  0  0  0  0  0  0  0  0  0  0  0
    2.4750   -5.3167    0.0000 C   0  0  0  0  0  0  0  0  0  0  0  0
    4.3542   -2.4417    0.0000 C   0  0  0  0  0  0  0  0  0  0  0  0
    3.6167    1.2750    0.0000 C   0  0  0  0  0  0  0  0  0  0  0  0
    4.3417    0.0458    0.0000 C   0  0  0  0  0  0  0  0  0  0  0  0
    0.5417   -0.6250    0.0000 C   0  0  0  0  0  0  0  0  0  0  0  0
   -2.1958   -4.9125    0.0000 C   0  0  0  0  0  0  0  0  0  0  0  0
    2.6875   -6.1167    0.0000 C   0  0  0  0  0  0  0  0  0  0  0  0
    3.0542   -4.7292    0.0000 C   0  0  0  0  0  0  0  0  0  0  0  0
   -2.3131   -1.4502    0.0000 H   0  0  0  0  0  0  0  0  0  0  0  0
  2  1  1  0
  3  5  1  0
  2  4  1  0
  1  5  1  0
 17  6  1  0
  7  2  1  0
  8 12  1  0
  9 16  1  0
 10  6  1  0
 11 10  1  0
 12  9  1  0
 13 14  1  0
 14  8  1  0
 15  7  1  0
 16 19  1  0
 13 17  1  6
 18 25  1  0
 19  1  1  0
 20  6  1  0
 11 21  1  1
 22 15  1  0
  8 23  1  1
 24 23  1  0
 25 22  1  0
 26 30  1  0
 27  4  1  0
 28  3  2  0
 29  9  2  0
 30 20  1  0
 31 15  2  0
 32 24  2  0
 10 33  1  6
  1 34  1  6
 35 21  1  0
 36 24  1  0
 18 37  1  0
 38 27  1  0
  7 39  1  6
 40 47  2  0
 41 38  1  0
 12 42  1  1
 14 43  1  1
 44 40  1  0
 18 45  1  1
 46 48  2  0
 47 49  1  0
 48 41  1  0
 49 41  2  0
 50 21  1  0
 19 51  1  1
 22 52  1  6
 53 36  1  0
 30 54  1  1
 55 35  1  0
 56 35  1  0
 57 37  1  0
 58 51  1  0
 59 53  1  0
 60 53  1  0
  3  4  1  0
 13 18  1  0
 40 46  1  0
 26 11  1  0
  2 61  1  1
M  END

> <chembl_id>
CHEMBL268491

> <chembl_pref_name>
None

$$$$

     RDKit          2D

 67 71  0  0  1  0  0  0  0  0999 V2000
    2.9167    1.9333    0.0000 C   0  0  0  0  0  0  0  0  0  0  0  0
    6.8042    0.0958    0.0000 N   0  0  0  0  0  0  0  0  0  0  0  0
    6.5917    0.8875    0.0000 C   0  0  0  0  0  0  0  0  0  0  0  0
    2.9250    2.7583    0.0000 C   0  0  0  0  0  0  0  0  0  0  0  0
    1.5292    2.3958    0.0000 C   0  0  0  0  0  0  0  0  0  0  0  0
    2.1167    2.9833    0.0000 N   0  0  0  0  0  0  0  0  0  0  0  0
    2.0292    1.5208    0.0000 O   0  0  0  0  0  0  0  0  0  0  0  0
    5.0667    1.5208    0.0000 C   0  0  0  0  0  0  0  0  0  0  0  0
    7.3417    3.1708    0.0000 C   0  0  0  0  0  0  0  0  0  0  0  0
    3.6417    3.1708    0.0000 C   0  0  0  0  0  0  0  0  0  0  0  0
    6.5167   -0.6792    0.0000 C   0  0  0  0  0  0  0  0  0  0  0  0
    4.3500    0.2833    0.0000 C   0  0  0  0  0  0  0  0  0  0  0  0
    7.3292    3.9958    0.0000 C   0  0  0  0  0  0  0  0  0  0  0  0
    8.0542    4.4042    0.0000 C   0  0  0  0  0  0  0  0  0  0  0  0
    5.0667    0.6958    0.0000 C   0  0  0  0  0  0  0  0  0  0  0  0
    5.8042    2.7458    0.0000 C   0  0  0  0  0  0  0  0  0  0  0  0
    5.7917    1.1000    0.0000 O   0  0  0  0  0  0  0  0  0  0  0  0
    5.7917    1.9208    0.0000 C   0  0  0  0  0  0  0  0  0  0  0  0
    3.6500    3.9958    0.0000 C   0  0  0  0  0  0  0  0  0  0  0  0
    3.6292    0.6958    0.0000 O   0  0  0  0  0  0  0  0  0  0  0  0
    7.6375    0.0458    0.0000 C   0  0  0  0  0  0  0  0  0  0  0  0
    6.6292    2.7458    0.0000 O   0  0  0  0  0  0  0  0  0  0  0  0
    5.0792    3.1708    0.0000 C   0  0  0  0  0  0  0  0  0  0  0  0
    3.6375    1.5208    0.0000 C   0  0  0  0  0  0  0  0  0  0  0  0
    8.0667    2.7583    0.0000 O   0  0  0  0  0  0  0  0  0  0  0  0
    8.0542    5.2292    0.0000 N   0  0  0  0  0  0  0  0  0  0  0  0
    7.1542   -1.2000    0.0000 O   0  0  0  0  0  0  0  0  0  0  0  0
    4.3625    4.4042    0.0000 C   0  0  0  0  0  0  0  0  0  0  0  0
    5.0792    3.9958    0.0000 C   0  0  0  0  0  0  0  0  0  0  0  0
    8.7792    3.9958    0.0000 C   0  0  0  0  0  0  0  0  0  0  0  0
    1.9042    3.7708    0.0000 C   0  0  0  0  0  0  0  0  0  0  0  0
    7.1792    1.4750    0.0000 O   0  0  0  0  0  0  0  0  0  0  0  0
    0.7000    2.4000    0.0000 O   0  0  0  0  0  0  0  0  0  0  0  0
    7.8500   -0.7500    0.0000 C   0  0  0  0  0  0  0  0  0  0  0  0
    4.3417   -0.5417    0.0000 O   0  0  0  0  0  0  0  0  0  0  0  0
    5.7125   -0.8917    0.0000 O   0  0  0  0  0  0  0  0  0  0  0  0
    8.7792    3.1708    0.0000 C   0  0  0  0  0  0  0  0  0  0  0  0
    2.9292    4.4042    0.0000 O   0  0  0  0  0  0  0  0  0  0  0  0
    8.0542    0.7625    0.0000 C   0  0  0  0  0  0  0  0  0  0  0  0
    6.7417    4.5750    0.0000 O   0  0  0  0  0  0  0  0  0  0  0  0
    2.5042    1.2208    0.0000 C   0  0  0  0  0  0  0  0  0  0  0  0
    8.7667    5.6417    0.0000 C   0  0  0  0  0  0  0  0  0  0  0  0
    5.6667    3.7500    0.0000 O   0  0  0  0  0  0  0  0  0  0  0  0
    1.1042    3.9958    0.0000 C   0  0  0  0  0  0  0  0  0  0  0  0
    2.9167    3.5833    0.0000 C   0  0  0  0  0  0  0  0  0  0  0  0
    0.4667    6.3875    0.0000 C   0  0  0  0  0  0  0  0  0  0  0  0
    0.8917    4.7792    0.0000 C   0  0  0  0  0  0  0  0  0  0  0  0
    5.7917    0.2708    0.0000 C   0  0  0  0  0  0  0  0  0  0  0  0
    6.5167    1.5083    0.0000 C   0  0  0  0  0  0  0  0  0  0  0  0
    0.2542    7.1667    0.0000 Cl  0  0  0  0  0  0  0  0  0  0  0  0
    5.9167    3.1708    0.0000 C   0  0  0  0  0  0  0  0  0  0  0  0
   -0.1250    5.7917    0.0000 C   0  0  0  0  0  0  0  0  0  0  0  0
    1.2750    6.1542    0.0000 C   0  0  0  0  0  0  0  0  0  0  0  0
    0.0917    4.9917    0.0000 C   0  0  0  0  0  0  0  0  0  0  0  0
    1.4875    5.3667    0.0000 C   0  0  0  0  0  0  0  0  0  0  0  0
    7.3292    5.6417    0.0000 C   0  0  0  0  0  0  0  0  0  0  0  0
    2.9167    1.1125    0.0000 C   0  0  0  0  0  0  0  0  0  0  0  0
    4.3792    5.2292    0.0000 C   0  0  0  0  0  0  0  0  0  0  0  0
    8.8792    0.7708    0.0000 C   0  0  0  0  0  0  0  0  0  0  0  0
    9.5000    2.7583    0.0000 C   0  0  0  0  0  0  0  0  0  0  0  0
    8.7667    6.4667    0.0000 C   0  0  0  0  0  0  0  0  0  0  0  0
    9.4875    5.2417    0.0000 C   0  0  0  0  0  0  0  0  0  0  0  0
    5.6625    4.5750    0.0000 C   0  0  0  0  0  0  0  0  0  0  0  0
    9.2792    1.4875    0.0000 C   0  0  0  0  0  0  0  0  0  0  0  0
    9.2917    0.0625    0.0000 C   0  0  0  0  0  0  0  0  0  0  0  0
    2.9042    0.2875    0.0000 C   0  0  0  0  0  0  0  0  0  0  0  0
    2.7999    3.7505    0.0000 H   0  0  0  0  0  0  0  0  0  0  0  0
  2  3  1  0
  3 17  1  0
  4  1  1  0
  5  7  1  0
  4  6  1  0
  1  7  1  0
  8 15  1  0
 22  9  1  0
 10  4  1  0
 11  2  1  0
 12 20  1  0
 13  9  1  0
 14 13  1  0
 15 12  1  0
 16 18  1  0
  8 17  1  1
 18  8  1  0
 19 10  1  0
 20 24  1  0
 21  2  1  0
 16 22  1  6
 23 29  1  0
 24  1  1  0
 25  9  1  0
 14 26  1  1
 27 11  1  0
 28 19  1  0
 29 28  1  0
 30 37  1  0
 31  6  1  0
 32  3  2  0
 33  5  2  0
 34 21  1  0
 35 12  2  0
 36 11  2  0
 37 25  1  0
 38 19  2  0
 21 39  1  6
 13 40  1  6
  1 41  1  6
 42 26  1  0
 23 43  1  0
 44 31  1  0
 10 45  1  6
 46 53  2  0
 47 44  1  0
 15 48  1  1
 18 49  1  1
 50 46  1  0
 23 51  1  1
 52 54  2  0
 53 55  1  0
 54 47  1  0
 55 47  2  0
 56 26  1  0
 24 57  1  1
 28 58  1  6
 59 39  1  0
 37 60  1  1
 61 42  1  0
 62 42  1  0
 63 43  1  0
 64 59  1  0
 65 59  1  0
 66 57  1  0
  5  6  1  0
 23 16  1  0
 46 52  1  0
 34 27  1  0
 30 14  1  0
  4 67  1  1
M  END

> <chembl_id>
CHEMBL276217

> <chembl_pref_name>
None

$$$$

     RDKit          2D

 65 69  0  0  1  0  0  0  0  0999 V2000
    2.8792    2.0458    0.0000 C   0  0  0  0  0  0  0  0  0  0  0  0
    6.7667    0.2083    0.0000 N   0  0  0  0  0  0  0  0  0  0  0  0
    2.8917    2.8708    0.0000 C   0  0  0  0  0  0  0  0  0  0  0  0
    1.5000    2.5083    0.0000 C   0  0  0  0  0  0  0  0  0  0  0  0
    2.0875    3.0875    0.0000 N   0  0  0  0  0  0  0  0  0  0  0  0
    6.4792   -0.5667    0.0000 C   0  0  0  0  0  0  0  0  0  0  0  0
    6.5625    1.0000    0.0000 C   0  0  0  0  0  0  0  0  0  0  0  0
    2.0542    1.6375    0.0000 O   0  0  0  0  0  0  0  0  0  0  0  0
    5.0375    1.6333    0.0000 C   0  0  0  0  0  0  0  0  0  0  0  0
    7.3125    3.2833    0.0000 C   0  0  0  0  0  0  0  0  0  0  0  0
    3.6125    3.2958    0.0000 C   0  0  0  0  0  0  0  0  0  0  0  0
    4.3167    0.3958    0.0000 C   0  0  0  0  0  0  0  0  0  0  0  0
    7.3000    4.1042    0.0000 C   0  0  0  0  0  0  0  0  0  0  0  0
    8.0250    4.5167    0.0000 C   0  0  0  0  0  0  0  0  0  0  0  0
    5.0375    0.8083    0.0000 C   0  0  0  0  0  0  0  0  0  0  0  0
    5.7667    2.8583    0.0000 C   0  0  0  0  0  0  0  0  0  0  0  0
    5.7625    2.0333    0.0000 C   0  0  0  0  0  0  0  0  0  0  0  0
    5.7542    1.2125    0.0000 O   0  0  0  0  0  0  0  0  0  0  0  0
    3.6167    4.1042    0.0000 C   0  0  0  0  0  0  0  0  0  0  0  0
    3.6000    0.8125    0.0000 O   0  0  0  0  0  0  0  0  0  0  0  0
    6.5917    2.8583    0.0000 O   0  0  0  0  0  0  0  0  0  0  0  0
    5.0500    3.2833    0.0000 C   0  0  0  0  0  0  0  0  0  0  0  0
    3.6042    1.6375    0.0000 C   0  0  0  0  0  0  0  0  0  0  0  0
    7.1167   -1.0792    0.0000 O   0  0  0  0  0  0  0  0  0  0  0  0
    8.0292    2.8708    0.0000 O   0  0  0  0  0  0  0  0  0  0  0  0
    8.0167    5.3417    0.0000 N   0  0  0  0  0  0  0  0  0  0  0  0
    4.3292    4.5167    0.0000 C   0  0  0  0  0  0  0  0  0  0  0  0
    5.0500    4.1042    0.0000 C   0  0  0  0  0  0  0  0  0  0  0  0
    8.7417    4.1042    0.0000 C   0  0  0  0  0  0  0  0  0  0  0  0
    1.8750    3.8958    0.0000 C   0  0  0  0  0  0  0  0  0  0  0  0
    7.6042    0.1583    0.0000 C   0  0  0  0  0  0  0  0  0  0  0  0
    5.6792   -0.7792    0.0000 O   0  0  0  0  0  0  0  0  0  0  0  0
    0.6667    2.5208    0.0000 O   0  0  0  0  0  0  0  0  0  0  0  0
    7.1500    1.5875    0.0000 O   0  0  0  0  0  0  0  0  0  0  0  0
    4.3125   -0.4292    0.0000 O   0  0  0  0  0  0  0  0  0  0  0  0
    8.7417    3.2958    0.0000 C   0  0  0  0  0  0  0  0  0  0  0  0
    2.9000    4.5167    0.0000 O   0  0  0  0  0  0  0  0  0  0  0  0
    7.8167   -0.6292    0.0000 C   0  0  0  0  0  0  0  0  0  0  0  0
    6.7125    4.6917    0.0000 O   0  0  0  0  0  0  0  0  0  0  0  0
    2.4667    1.3333    0.0000 C   0  0  0  0  0  0  0  0  0  0  0  0
    8.7375    5.7625    0.0000 C   0  0  0  0  0  0  0  0  0  0  0  0
    5.6375    3.8708    0.0000 O   0  0  0  0  0  0  0  0  0  0  0  0
    1.0750    4.1042    0.0000 C   0  0  0  0  0  0  0  0  0  0  0  0
    2.8792    3.6958    0.0000 C   0  0  0  0  0  0  0  0  0  0  0  0
    0.4375    6.5000    0.0000 C   0  0  0  0  0  0  0  0  0  0  0  0
    0.8542    4.9042    0.0000 C   0  0  0  0  0  0  0  0  0  0  0  0
    5.7542    0.3833    0.0000 C   0  0  0  0  0  0  0  0  0  0  0  0
    6.4792    1.6208    0.0000 C   0  0  0  0  0  0  0  0  0  0  0  0
    0.2167    7.2792    0.0000 Cl  0  0  0  0  0  0  0  0  0  0  0  0
    5.8792    3.2833    0.0000 C   0  0  0  0  0  0  0  0  0  0  0  0
    1.2417    6.2750    0.0000 C   0  0  0  0  0  0  0  0  0  0  0  0
   -0.1583    5.9042    0.0000 C   0  0  0  0  0  0  0  0  0  0  0  0
    1.4542    5.4792    0.0000 C   0  0  0  0  0  0  0  0  0  0  0  0
    0.0625    5.1042    0.0000 C   0  0  0  0  0  0  0  0  0  0  0  0
    7.3000    5.7542    0.0000 C   0  0  0  0  0  0  0  0  0  0  0  0
    2.8792    1.2250    0.0000 C   0  0  0  0  0  0  0  0  0  0  0  0
    4.3417    5.3417    0.0000 C   0  0  0  0  0  0  0  0  0  0  0  0
    8.5750   -0.9250    0.0000 C   0  0  0  0  0  0  0  0  0  0  0  0
    9.4667    2.8708    0.0000 C   0  0  0  0  0  0  0  0  0  0  0  0
    8.7292    6.5875    0.0000 C   0  0  0  0  0  0  0  0  0  0  0  0
    9.4542    5.3542    0.0000 C   0  0  0  0  0  0  0  0  0  0  0  0
    5.6292    4.6917    0.0000 C   0  0  0  0  0  0  0  0  0  0  0  0
    2.8667    0.4000    0.0000 C   0  0  0  0  0  0  0  0  0  0  0  0
    8.7042   -1.7375    0.0000 C   0  0  0  0  0  0  0  0  0  0  0  0
    2.7573    3.8617    0.0000 H   0  0  0  0  0  0  0  0  0  0  0  0
  2  7  1  0
  3  1  1  0
  4  8  1  0
  3  5  1  0
  6  2  1  0
  7 18  1  0
  1  8  1  0
  9 15  1  0
 21 10  1  0
 11  3  1  0
 12 20  1  0
 13 10  1  0
 14 13  1  0
 15 12  1  0
 16 17  1  0
 17  9  1  0
  9 18  1  1
 19 11  1  0
 20 23  1  0
 16 21  1  6
 22 28  1  0
 23  1  1  0
 24  6  1  0
 25 10  1  0
 14 26  1  1
 27 19  1  0
 28 27  1  0
 29 36  1  0
 30  5  1  0
 31  2  1  0
 32  6  2  0
 33  4  2  0
 34  7  2  0
 35 12  2  0
 36 25  1  0
 37 19  2  0
 38 31  1  0
 13 39  1  6
  1 40  1  6
 41 26  1  0
 22 42  1  0
 43 30  1  0
 11 44  1  6
 45 52  1  0
 46 43  1  0
 15 47  1  1
 17 48  1  1
 49 45  1  0
 22 50  1  1
 51 53  1  0
 52 54  2  0
 53 46  2  0
 54 46  1  0
 55 26  1  0
 23 56  1  1
 27 57  1  6
 58 38  1  0
 36 59  1  1
 60 41  1  0
 61 41  1  0
 62 42  1  0
 63 56  1  0
 64 58  1  0
  4  5  1  0
 16 22  1  0
 45 51  2  0
 38 24  1  0
 29 14  1  0
  3 65  1  1
M  END

> <chembl_id>
CHEMBL430312

> <chembl_pref_name>
None

$$$$

     RDKit          2D

 65 69  0  0  1  0  0  0  0  0999 V2000
   -1.3458   -3.2667    0.0000 C   0  0  0  0  0  0  0  0  0  0  0  0
    2.5167   -5.1042    0.0000 N   0  0  0  0  0  0  0  0  0  0  0  0
    2.3042   -4.3125    0.0000 C   0  0  0  0  0  0  0  0  0  0  0  0
   -1.3375   -2.4417    0.0000 C   0  0  0  0  0  0  0  0  0  0  0  0
   -2.7250   -2.8042    0.0000 C   0  0  0  0  0  0  0  0  0  0  0  0
   -2.1375   -2.2250    0.0000 N   0  0  0  0  0  0  0  0  0  0  0  0
   -2.0583   -3.6750    0.0000 O   0  0  0  0  0  0  0  0  0  0  0  0
    0.7917   -3.6875    0.0000 C   0  0  0  0  0  0  0  0  0  0  0  0
    3.0542   -2.0375    0.0000 C   0  0  0  0  0  0  0  0  0  0  0  0
   -0.6250   -2.0292    0.0000 C   0  0  0  0  0  0  0  0  0  0  0  0
    0.0750   -4.9167    0.0000 C   0  0  0  0  0  0  0  0  0  0  0  0
    2.2250   -5.8792    0.0000 C   0  0  0  0  0  0  0  0  0  0  0  0
    3.0417   -1.2125    0.0000 C   0  0  0  0  0  0  0  0  0  0  0  0
    3.7625   -0.7917    0.0000 C   0  0  0  0  0  0  0  0  0  0  0  0
    0.7917   -4.5042    0.0000 C   0  0  0  0  0  0  0  0  0  0  0  0
    1.5167   -2.4542    0.0000 C   0  0  0  0  0  0  0  0  0  0  0  0
    1.5042   -4.1000    0.0000 O   0  0  0  0  0  0  0  0  0  0  0  0
    1.5125   -3.2792    0.0000 C   0  0  0  0  0  0  0  0  0  0  0  0
   -0.6208   -1.2042    0.0000 C   0  0  0  0  0  0  0  0  0  0  0  0
   -0.6375   -4.5042    0.0000 O   0  0  0  0  0  0  0  0  0  0  0  0
    2.3417   -2.4542    0.0000 O   0  0  0  0  0  0  0  0  0  0  0  0
    0.8042   -2.0375    0.0000 C   0  0  0  0  0  0  0  0  0  0  0  0
   -0.6333   -3.6792    0.0000 C   0  0  0  0  0  0  0  0  0  0  0  0
    3.7667   -2.4417    0.0000 O   0  0  0  0  0  0  0  0  0  0  0  0
    3.7542    0.0333    0.0000 N   0  0  0  0  0  0  0  0  0  0  0  0
    2.8625   -6.4000    0.0000 O   0  0  0  0  0  0  0  0  0  0  0  0
    0.0917   -0.7917    0.0000 C   0  0  0  0  0  0  0  0  0  0  0  0
    0.8042   -1.2125    0.0000 C   0  0  0  0  0  0  0  0  0  0  0  0
    4.4792   -1.2042    0.0000 C   0  0  0  0  0  0  0  0  0  0  0  0
   -2.3500   -1.4250    0.0000 C   0  0  0  0  0  0  0  0  0  0  0  0
    3.3417   -5.1542    0.0000 C   0  0  0  0  0  0  0  0  0  0  0  0
    2.8875   -3.7250    0.0000 O   0  0  0  0  0  0  0  0  0  0  0  0
   -3.5500   -2.8000    0.0000 O   0  0  0  0  0  0  0  0  0  0  0  0
    0.0667   -5.7417    0.0000 O   0  0  0  0  0  0  0  0  0  0  0  0
    1.4250   -6.0917    0.0000 O   0  0  0  0  0  0  0  0  0  0  0  0
    4.4792   -2.0292    0.0000 C   0  0  0  0  0  0  0  0  0  0  0  0
   -1.3333   -0.7917    0.0000 O   0  0  0  0  0  0  0  0  0  0  0  0
    3.5542   -5.9500    0.0000 C   0  0  0  0  0  0  0  0  0  0  0  0
    2.4542   -0.6250    0.0000 O   0  0  0  0  0  0  0  0  0  0  0  0
   -1.7583   -3.9792    0.0000 C   0  0  0  0  0  0  0  0  0  0  0  0
    4.4667    0.4500    0.0000 C   0  0  0  0  0  0  0  0  0  0  0  0
    1.3875   -1.4500    0.0000 O   0  0  0  0  0  0  0  0  0  0  0  0
   -3.1458   -1.2042    0.0000 C   0  0  0  0  0  0  0  0  0  0  0  0
   -1.3458   -1.6167    0.0000 C   0  0  0  0  0  0  0  0  0  0  0  0
   -3.7833    1.1833    0.0000 C   0  0  0  0  0  0  0  0  0  0  0  0
   -3.3583   -0.4125    0.0000 C   0  0  0  0  0  0  0  0  0  0  0  0
    1.5042   -4.9292    0.0000 C   0  0  0  0  0  0  0  0  0  0  0  0
    2.2250   -3.6917    0.0000 C   0  0  0  0  0  0  0  0  0  0  0  0
   -3.9958    1.9708    0.0000 Cl  0  0  0  0  0  0  0  0  0  0  0  0
    1.6292   -2.0375    0.0000 C   0  0  0  0  0  0  0  0  0  0  0  0
   -2.9833    0.9625    0.0000 C   0  0  0  0  0  0  0  0  0  0  0  0
   -4.3708    0.5958    0.0000 C   0  0  0  0  0  0  0  0  0  0  0  0
   -2.7708    0.1708    0.0000 C   0  0  0  0  0  0  0  0  0  0  0  0
   -4.1583   -0.2042    0.0000 C   0  0  0  0  0  0  0  0  0  0  0  0
    3.0375    0.4375    0.0000 C   0  0  0  0  0  0  0  0  0  0  0  0
   -1.3500   -4.0875    0.0000 C   0  0  0  0  0  0  0  0  0  0  0  0
    0.1000    0.0333    0.0000 C   0  0  0  0  0  0  0  0  0  0  0  0
    3.7542   -4.4375    0.0000 C   0  0  0  0  0  0  0  0  0  0  0  0
    5.1917   -2.4417    0.0000 C   0  0  0  0  0  0  0  0  0  0  0  0
    5.1792    0.0458    0.0000 C   0  0  0  0  0  0  0  0  0  0  0  0
    4.4625    1.2750    0.0000 C   0  0  0  0  0  0  0  0  0  0  0  0
    1.3792   -0.6250    0.0000 C   0  0  0  0  0  0  0  0  0  0  0  0
   -1.3583   -4.9125    0.0000 C   0  0  0  0  0  0  0  0  0  0  0  0
    4.5750   -4.4292    0.0000 C   0  0  0  0  0  0  0  0  0  0  0  0
   -1.4673   -1.4502    0.0000 H   0  0  0  0  0  0  0  0  0  0  0  0
  2  3  1  0
  3 17  1  0
  4  1  1  0
  5  7  1  0
  4  6  1  0
  1  7  1  0
  8 15  1  0
 21  9  1  0
 10  4  1  0
 11 20  1  0
 12  2  1  0
 13  9  1  0
 14 13  1  0
 15 11  1  0
 16 18  1  0
  8 17  1  1
 18  8  1  0
 19 10  1  0
 20 23  1  0
 16 21  1  6
 22 28  1  0
 23  1  1  0
 24  9  1  0
 14 25  1  1
 26 12  1  0
 27 19  1  0
 28 27  1  0
 29 36  1  0
 30  6  1  0
 31  2  1  0
 32  3  2  0
 33  5  2  0
 34 11  2  0
 35 12  2  0
 36 24  1  0
 37 19  2  0
 38 31  1  0
 13 39  1  6
  1 40  1  6
 41 25  1  0
 22 42  1  0
 43 30  1  0
 10 44  1  6
 45 52  1  0
 46 43  1  0
 15 47  1  1
 18 48  1  1
 49 45  1  0
 22 50  1  1
 51 53  1  0
 52 54  2  0
 53 46  2  0
 54 46  1  0
 55 25  1  0
 23 56  1  1
 27 57  1  6
 31 58  1  1
 36 59  1  1
 60 41  1  0
 61 41  1  0
 62 42  1  0
 63 56  1  0
 64 58  1  0
  5  6  1  0
 16 22  1  0
 45 51  2  0
 38 26  1  0
 29 14  1  0
  4 65  1  1
M  END

> <chembl_id>
CHEMBL412634

> <chembl_pref_name>
None

$$$$

     RDKit          2D

 64 68  0  0  1  0  0  0  0  0999 V2000
    0.3875   -3.9125    0.0000 C   0  0  0  0  0  0  0  0  0  0  0  0
    4.2417   -5.7542    0.0000 N   0  0  0  0  0  0  0  0  0  0  0  0
    0.3917   -3.0875    0.0000 C   0  0  0  0  0  0  0  0  0  0  0  0
   -0.9958   -3.4500    0.0000 C   0  0  0  0  0  0  0  0  0  0  0  0
   -0.4083   -2.8667    0.0000 N   0  0  0  0  0  0  0  0  0  0  0  0
    3.9542   -6.5250    0.0000 C   0  0  0  0  0  0  0  0  0  0  0  0
    4.0292   -4.9542    0.0000 C   0  0  0  0  0  0  0  0  0  0  0  0
   -0.3333   -4.3167    0.0000 O   0  0  0  0  0  0  0  0  0  0  0  0
    2.5250   -4.3292    0.0000 C   0  0  0  0  0  0  0  0  0  0  0  0
    4.7792   -2.6792    0.0000 C   0  0  0  0  0  0  0  0  0  0  0  0
    1.1042   -2.6750    0.0000 C   0  0  0  0  0  0  0  0  0  0  0  0
    1.8042   -5.5667    0.0000 C   0  0  0  0  0  0  0  0  0  0  0  0
    4.7750   -1.8542    0.0000 C   0  0  0  0  0  0  0  0  0  0  0  0
    5.4917   -1.4417    0.0000 C   0  0  0  0  0  0  0  0  0  0  0  0
    2.5167   -5.1542    0.0000 C   0  0  0  0  0  0  0  0  0  0  0  0
    3.2417   -3.1000    0.0000 C   0  0  0  0  0  0  0  0  0  0  0  0
    3.2417   -3.9250    0.0000 C   0  0  0  0  0  0  0  0  0  0  0  0
    3.2375   -4.7417    0.0000 O   0  0  0  0  0  0  0  0  0  0  0  0
    1.1042   -1.8500    0.0000 C   0  0  0  0  0  0  0  0  0  0  0  0
    1.0917   -5.1500    0.0000 O   0  0  0  0  0  0  0  0  0  0  0  0
    4.0667   -3.1000    0.0000 O   0  0  0  0  0  0  0  0  0  0  0  0
    2.5292   -2.6792    0.0000 C   0  0  0  0  0  0  0  0  0  0  0  0
    1.0917   -4.3167    0.0000 C   0  0  0  0  0  0  0  0  0  0  0  0
    4.5917   -7.0417    0.0000 O   0  0  0  0  0  0  0  0  0  0  0  0
    5.5000   -3.0917    0.0000 O   0  0  0  0  0  0  0  0  0  0  0  0
    5.4875   -0.6167    0.0000 N   0  0  0  0  0  0  0  0  0  0  0  0
    1.8250   -1.4417    0.0000 C   0  0  0  0  0  0  0  0  0  0  0  0
    2.5375   -1.8542    0.0000 C   0  0  0  0  0  0  0  0  0  0  0  0
    6.2042   -1.8542    0.0000 C   0  0  0  0  0  0  0  0  0  0  0  0
   -0.6208   -2.0667    0.0000 C   0  0  0  0  0  0  0  0  0  0  0  0
    5.0750   -5.8000    0.0000 C   0  0  0  0  0  0  0  0  0  0  0  0
    3.1542   -6.7375    0.0000 O   0  0  0  0  0  0  0  0  0  0  0  0
   -1.8208   -3.4417    0.0000 O   0  0  0  0  0  0  0  0  0  0  0  0
    4.6167   -4.3667    0.0000 O   0  0  0  0  0  0  0  0  0  0  0  0
    1.8000   -6.3917    0.0000 O   0  0  0  0  0  0  0  0  0  0  0  0
    6.2042   -2.6792    0.0000 C   0  0  0  0  0  0  0  0  0  0  0  0
    0.4000   -1.4375    0.0000 O   0  0  0  0  0  0  0  0  0  0  0  0
    5.2792   -6.5917    0.0000 C   0  0  0  0  0  0  0  0  0  0  0  0
    4.1875   -1.2667    0.0000 O   0  0  0  0  0  0  0  0  0  0  0  0
   -0.0333   -4.6250    0.0000 C   0  0  0  0  0  0  0  0  0  0  0  0
    6.1917   -0.1917    0.0000 C   0  0  0  0  0  0  0  0  0  0  0  0
    3.1167   -2.0917    0.0000 O   0  0  0  0  0  0  0  0  0  0  0  0
   -1.4208   -1.8542    0.0000 C   0  0  0  0  0  0  0  0  0  0  0  0
    0.3875   -2.2625    0.0000 C   0  0  0  0  0  0  0  0  0  0  0  0
   -2.0500    0.5333    0.0000 C   0  0  0  0  0  0  0  0  0  0  0  0
   -1.6333   -1.0542    0.0000 C   0  0  0  0  0  0  0  0  0  0  0  0
    3.2292   -5.5750    0.0000 C   0  0  0  0  0  0  0  0  0  0  0  0
    3.9542   -4.3417    0.0000 C   0  0  0  0  0  0  0  0  0  0  0  0
   -2.2625    1.3250    0.0000 Cl  0  0  0  0  0  0  0  0  0  0  0  0
    3.3542   -2.6792    0.0000 C   0  0  0  0  0  0  0  0  0  0  0  0
   -1.2583    0.3208    0.0000 C   0  0  0  0  0  0  0  0  0  0  0  0
   -2.6375   -0.0542    0.0000 C   0  0  0  0  0  0  0  0  0  0  0  0
   -1.0458   -0.4792    0.0000 C   0  0  0  0  0  0  0  0  0  0  0  0
   -2.4208   -0.8500    0.0000 C   0  0  0  0  0  0  0  0  0  0  0  0
    4.7667   -0.2042    0.0000 C   0  0  0  0  0  0  0  0  0  0  0  0
    0.3792   -4.7292    0.0000 C   0  0  0  0  0  0  0  0  0  0  0  0
    1.8292   -0.6167    0.0000 C   0  0  0  0  0  0  0  0  0  0  0  0
    6.9250   -3.0917    0.0000 C   0  0  0  0  0  0  0  0  0  0  0  0
    6.0542   -6.8917    0.0000 C   0  0  0  0  0  0  0  0  0  0  0  0
    6.9125   -0.6042    0.0000 C   0  0  0  0  0  0  0  0  0  0  0  0
    6.1917    0.6333    0.0000 C   0  0  0  0  0  0  0  0  0  0  0  0
    3.1125   -1.2667    0.0000 C   0  0  0  0  0  0  0  0  0  0  0  0
    0.3750   -5.5542    0.0000 C   0  0  0  0  0  0  0  0  0  0  0  0
    0.2643   -2.0956    0.0000 H   0  0  0  0  0  0  0  0  0  0  0  0
  2  7  1  0
  3  1  1  0
  4  8  1  0
  3  5  1  0
  6  2  1  0
  7 18  1  0
  1  8  1  0
  9 15  1  0
 21 10  1  0
 11  3  1  0
 12 20  1  0
 13 10  1  0
 14 13  1  0
 15 12  1  0
 16 17  1  0
 17  9  1  0
  9 18  1  1
 19 11  1  0
 20 23  1  0
 16 21  1  6
 22 28  1  0
 23  1  1  0
 24  6  1  0
 25 10  1  0
 14 26  1  1
 27 19  1  0
 28 27  1  0
 29 36  1  0
 30  5  1  0
 31  2  1  0
 32  6  2  0
 33  4  2  0
 34  7  2  0
 35 12  2  0
 36 25  1  0
 37 19  2  0
 38 31  1  0
 13 39  1  6
  1 40  1  6
 41 26  1  0
 22 42  1  0
 43 30  1  0
 11 44  1  6
 45 52  1  0
 46 43  1  0
 15 47  1  1
 17 48  1  1
 49 45  1  0
 22 50  1  1
 51 53  1  0
 52 54  2  0
 53 46  2  0
 54 46  1  0
 55 26  1  0
 23 56  1  1
 27 57  1  6
 36 58  1  1
 59 38  1  0
 60 41  1  0
 61 41  1  0
 62 42  1  0
 63 56  1  0
  4  5  1  0
 16 22  1  0
 45 51  2  0
 38 24  1  0
 29 14  1  0
  3 64  1  1
M  END

> <chembl_id>
CHEMBL267568

> <chembl_pref_name>
None

$$$$

     RDKit          2D

 65 69  0  0  1  0  0  0  0  0999 V2000
   -1.3458   -3.2667    0.0000 C   0  0  0  0  0  0  0  0  0  0  0  0
    2.5167   -5.1042    0.0000 N   0  0  0  0  0  0  0  0  0  0  0  0
    2.3042   -4.3125    0.0000 C   0  0  0  0  0  0  0  0  0  0  0  0
   -1.3375   -2.4417    0.0000 C   0  0  0  0  0  0  0  0  0  0  0  0
   -2.7250   -2.8042    0.0000 C   0  0  0  0  0  0  0  0  0  0  0  0
   -2.1375   -2.2250    0.0000 N   0  0  0  0  0  0  0  0  0  0  0  0
   -2.0583   -3.6750    0.0000 O   0  0  0  0  0  0  0  0  0  0  0  0
    0.7917   -3.6875    0.0000 C   0  0  0  0  0  0  0  0  0  0  0  0
    3.0542   -2.0375    0.0000 C   0  0  0  0  0  0  0  0  0  0  0  0
   -0.6250   -2.0292    0.0000 C   0  0  0  0  0  0  0  0  0  0  0  0
    2.2250   -5.8792    0.0000 C   0  0  0  0  0  0  0  0  0  0  0  0
    0.0750   -4.9167    0.0000 C   0  0  0  0  0  0  0  0  0  0  0  0
    3.0417   -1.2125    0.0000 C   0  0  0  0  0  0  0  0  0  0  0  0
    3.7625   -0.7917    0.0000 C   0  0  0  0  0  0  0  0  0  0  0  0
    0.7917   -4.5042    0.0000 C   0  0  0  0  0  0  0  0  0  0  0  0
    1.5167   -2.4542    0.0000 C   0  0  0  0  0  0  0  0  0  0  0  0
    1.5042   -4.1000    0.0000 O   0  0  0  0  0  0  0  0  0  0  0  0
    1.5125   -3.2792    0.0000 C   0  0  0  0  0  0  0  0  0  0  0  0
   -0.6208   -1.2042    0.0000 C   0  0  0  0  0  0  0  0  0  0  0  0
   -0.6375   -4.5042    0.0000 O   0  0  0  0  0  0  0  0  0  0  0  0
    2.3417   -2.4542    0.0000 O   0  0  0  0  0  0  0  0  0  0  0  0
    0.8042   -2.0375    0.0000 C   0  0  0  0  0  0  0  0  0  0  0  0
   -0.6333   -3.6792    0.0000 C   0  0  0  0  0  0  0  0  0  0  0  0
    3.7667   -2.4417    0.0000 O   0  0  0  0  0  0  0  0  0  0  0  0
    3.7542    0.0333    0.0000 N   0  0  0  0  0  0  0  0  0  0  0  0
    3.3417   -5.1542    0.0000 C   0  0  0  0  0  0  0  0  0  0  0  0
    2.8625   -6.4000    0.0000 O   0  0  0  0  0  0  0  0  0  0  0  0
    0.0917   -0.7917    0.0000 C   0  0  0  0  0  0  0  0  0  0  0  0
    0.8042   -1.2125    0.0000 C   0  0  0  0  0  0  0  0  0  0  0  0
    4.4792   -1.2042    0.0000 C   0  0  0  0  0  0  0  0  0  0  0  0
   -2.3500   -1.4250    0.0000 C   0  0  0  0  0  0  0  0  0  0  0  0
    2.8875   -3.7250    0.0000 O   0  0  0  0  0  0  0  0  0  0  0  0
   -3.5500   -2.8000    0.0000 O   0  0  0  0  0  0  0  0  0  0  0  0
    3.5542   -5.9500    0.0000 C   0  0  0  0  0  0  0  0  0  0  0  0
    0.0667   -5.7417    0.0000 O   0  0  0  0  0  0  0  0  0  0  0  0
    1.4250   -6.0917    0.0000 O   0  0  0  0  0  0  0  0  0  0  0  0
    4.4792   -2.0292    0.0000 C   0  0  0  0  0  0  0  0  0  0  0  0
   -1.3333   -0.7917    0.0000 O   0  0  0  0  0  0  0  0  0  0  0  0
    2.4542   -0.6250    0.0000 O   0  0  0  0  0  0  0  0  0  0  0  0
   -1.7583   -3.9792    0.0000 C   0  0  0  0  0  0  0  0  0  0  0  0
    4.4667    0.4500    0.0000 C   0  0  0  0  0  0  0  0  0  0  0  0
    1.3875   -1.4500    0.0000 O   0  0  0  0  0  0  0  0  0  0  0  0
   -3.1458   -1.2042    0.0000 C   0  0  0  0  0  0  0  0  0  0  0  0
   -1.3458   -1.6167    0.0000 C   0  0  0  0  0  0  0  0  0  0  0  0
   -3.7833    1.1833    0.0000 C   0  0  0  0  0  0  0  0  0  0  0  0
   -3.3583   -0.4125    0.0000 C   0  0  0  0  0  0  0  0  0  0  0  0
    1.5042   -4.9292    0.0000 C   0  0  0  0  0  0  0  0  0  0  0  0
    2.2250   -3.6917    0.0000 C   0  0  0  0  0  0  0  0  0  0  0  0
   -3.9958    1.9708    0.0000 Cl  0  0  0  0  0  0  0  0  0  0  0  0
    1.6292   -2.0375    0.0000 C   0  0  0  0  0  0  0  0  0  0  0  0
   -2.9833    0.9625    0.0000 C   0  0  0  0  0  0  0  0  0  0  0  0
   -4.3708    0.5958    0.0000 C   0  0  0  0  0  0  0  0  0  0  0  0
   -2.7708    0.1708    0.0000 C   0  0  0  0  0  0  0  0  0  0  0  0
   -4.1583   -0.2042    0.0000 C   0  0  0  0  0  0  0  0  0  0  0  0
    3.0375    0.4375    0.0000 C   0  0  0  0  0  0  0  0  0  0  0  0
   -1.3500   -4.0875    0.0000 C   0  0  0  0  0  0  0  0  0  0  0  0
    3.1292   -4.3542    0.0000 C   0  0  0  0  0  0  0  0  0  0  0  0
    4.1667   -5.1542    0.0000 C   0  0  0  0  0  0  0  0  0  0  0  0
    0.1000    0.0333    0.0000 C   0  0  0  0  0  0  0  0  0  0  0  0
    5.1917   -2.4417    0.0000 C   0  0  0  0  0  0  0  0  0  0  0  0
    4.4625    1.2750    0.0000 C   0  0  0  0  0  0  0  0  0  0  0  0
    5.1792    0.0458    0.0000 C   0  0  0  0  0  0  0  0  0  0  0  0
    1.3792   -0.6250    0.0000 C   0  0  0  0  0  0  0  0  0  0  0  0
   -1.3583   -4.9125    0.0000 C   0  0  0  0  0  0  0  0  0  0  0  0
   -1.4673   -1.4502    0.0000 H   0  0  0  0  0  0  0  0  0  0  0  0
  2  3  1  0
  3 17  1  0
  4  1  1  0
  5  7  1  0
  4  6  1  0
  1  7  1  0
  8 15  1  0
 21  9  1  0
 10  4  1  0
 11  2  1  0
 12 20  1  0
 13  9  1  0
 14 13  1  0
 15 12  1  0
 16 18  1  0
  8 17  1  1
 18  8  1  0
 19 10  1  0
 20 23  1  0
 16 21  1  6
 22 29  1  0
 23  1  1  0
 24  9  1  0
 14 25  1  1
 26  2  1  0
 27 11  1  0
 28 19  1  0
 29 28  1  0
 30 37  1  0
 31  6  1  0
 32  3  2  0
 33  5  2  0
 34 26  1  0
 35 12  2  0
 36 11  2  0
 37 24  1  0
 38 19  2  0
 13 39  1  6
  1 40  1  6
 41 25  1  0
 22 42  1  0
 43 31  1  0
 10 44  1  6
 45 52  1  0
 46 43  1  0
 15 47  1  1
 18 48  1  1
 49 45  1  0
 22 50  1  1
 51 53  1  0
 52 54  2  0
 53 46  2  0
 54 46  1  0
 55 25  1  0
 23 56  1  1
 57 26  1  0
 58 26  1  0
 28 59  1  6
 37 60  1  1
 61 41  1  0
 62 41  1  0
 63 42  1  0
 64 56  1  0
  5  6  1  0
 16 22  1  0
 45 51  2  0
 34 27  1  0
 30 14  1  0
  4 65  1  1
M  END

> <chembl_id>
CHEMBL273536

> <chembl_pref_name>
None

$$$$
