
     RDKit          2D

 13 13  0  0  0  0  0  0  0  0999 V2000
    8.8810   -2.1206    0.0000 C   0  0  0  0  0  0  0  0  0  0  0  0
    8.8798   -2.9479    0.0000 C   0  0  0  0  0  0  0  0  0  0  0  0
    9.5946   -3.3607    0.0000 C   0  0  0  0  0  0  0  0  0  0  0  0
   10.3110   -2.9474    0.0000 C   0  0  0  0  0  0  0  0  0  0  0  0
   10.3081   -2.1170    0.0000 C   0  0  0  0  0  0  0  0  0  0  0  0
    9.5928   -1.7078    0.0000 C   0  0  0  0  0  0  0  0  0  0  0  0
   11.0210   -1.7018    0.0000 C   0  0  0  0  0  0  0  0  0  0  0  0
   11.7369   -2.1116    0.0000 O   0  0  0  0  0  0  0  0  0  0  0  0
   11.0260   -3.3588    0.0000 O   0  0  0  0  0  0  0  0  0  0  0  0
   11.0273   -4.1837    0.0000 C   0  0  0  0  0  0  0  0  0  0  0  0
   11.7423   -4.5949    0.0000 C   0  0  0  0  0  0  0  0  0  0  0  0
   10.3136   -4.5972    0.0000 O   0  0  0  0  0  0  0  0  0  0  0  0
   11.0178   -0.8769    0.0000 O   0  0  0  0  0  0  0  0  0  0  0  0
  1  2  2  0
  5  7  1  0
  3  4  2  0
  7  8  2  0
  4  9  1  0
  4  5  1  0
  9 10  1  0
  2  3  1  0
 10 11  1  0
  5  6  2  0
 10 12  2  0
  6  1  1  0
  7 13  1  0
M  END

> <chembl_id>
CHEMBL25

> <chembl_pref_name>
ASPIRIN


$$$$

     RDKit          2D

 24 25  0  0  0  0  0  0  0  0999 V2000
   15.6199   -4.4248    0.0000 C   0  0  0  0  0  0  0  0  0  0  0  0
   14.9050   -4.0241    0.0000 C   0  0  0  0  0  0  0  0  0  0  0  0
   14.2027   -4.4428    0.0000 C   0  0  0  0  0  0  0  0  0  0  0  0
   14.2140   -5.2621    0.0000 C   0  0  0  0  0  0  0  0  0  0  0  0
   14.9336   -5.6608    0.0000 C   0  0  0  0  0  0  0  0  0  0  0  0
   15.6330   -5.2397    0.0000 C   0  0  0  0  0  0  0  0  0  0  0  0
   14.8940   -3.2070    0.0000 O   0  0  0  0  0  0  0  0  0  0  0  0
   16.3217   -4.0060    0.0000 O   0  0  0  0  0  0  0  0  0  0  0  0
   17.0352   -4.4043    0.0000 C   0  0  0  0  0  0  0  0  0  0  0  0
   14.9483   -6.4778    0.0000 C   0  0  0  0  0  0  0  0  0  0  0  0
   14.2481   -6.8991    0.0000 C   0  0  0  0  0  0  0  0  0  0  0  0
   14.2627   -7.7161    0.0000 C   0  0  0  0  0  0  0  0  0  0  0  0
   12.0707   -3.2192    0.0000 C   0  0  0  0  0  0  0  0  0  0  0  0
   12.0696   -4.0387    0.0000 C   0  0  0  0  0  0  0  0  0  0  0  0
   12.7776   -4.4477    0.0000 C   0  0  0  0  0  0  0  0  0  0  0  0
   13.4873   -4.0383    0.0000 C   0  0  0  0  0  0  0  0  0  0  0  0
   13.4845   -3.2156    0.0000 C   0  0  0  0  0  0  0  0  0  0  0  0
   12.7758   -2.8103    0.0000 C   0  0  0  0  0  0  0  0  0  0  0  0
   12.7713   -1.9922    0.0000 O   0  0  0  0  0  0  0  0  0  0  0  0
   14.1922   -2.8041    0.0000 C   0  0  0  0  0  0  0  0  0  0  0  0
   14.1891   -1.9869    0.0000 O   0  0  0  0  0  0  0  0  0  0  0  0
   13.4768   -1.5798    0.0000 C   0  0  0  0  0  0  0  0  0  0  0  0
   13.4723   -0.7626    0.0000 O   0  0  0  0  0  0  0  0  0  0  0  0
   14.2926   -1.5766    0.0000 C   0  0  0  0  0  0  0  0  0  0  0  0
  1  2  2  0
  2  3  1  0
  3  4  2  0
  4  5  1  0
  5  6  2  0
  6  1  1  0
  2  7  1  0
  1  8  1  0
  8  9  1  0
  5 10  1  0
 10 11  1  0
 11 12  2  0
 13 14  2  0
 14 15  1  0
 15 16  2  0
 16 17  1  0
 17 18  2  0
 18 13  1  0
 18 19  1  0
 20  7  1  0
 20 21  2  0
 17 20  1  0
 19 22  1  0
 22 23  2  0
 22 24  1  0
M  END

> <chembl_id>
CHEMBL2260549

> <chembl_pref_name>
ASPIRIN EUGENOL ESTER


$$$$

     RDKit          2D

 23 22  0  0  0  0  0  0  0  0999 V2000
    2.4973   -3.1821    0.0000 O   0  0  0  0  0  0  0  0  0  0  0  0
    1.7828   -2.7696    0.0000 C   0  0  0  0  0  0  0  0  0  0  0  0
    1.0683   -3.1821    0.0000 C   0  0  0  0  0  0  0  0  0  0  0  0
    0.3539   -2.7696    0.0000 C   0  0  0  0  0  0  0  0  0  0  0  0
   -0.3606   -3.1821    0.0000 C   0  0  0  0  0  0  0  0  0  0  0  0
   -1.0751   -2.7696    0.0000 C   0  0  0  0  0  0  0  0  0  0  0  0
   -1.7895   -3.1821    0.0000 C   0  0  0  0  0  0  0  0  0  0  0  0
   -2.5040   -2.7696    0.0000 N   0  0  0  0  0  0  0  0  0  0  0  0
    1.7828   -1.9446    0.0000 O   0  0  0  0  0  0  0  0  0  0  0  0
    1.0683   -4.0071    0.0000 N   0  0  0  0  0  0  0  0  0  0  0  0
    3.5724    1.2375    0.0000 C   0  0  0  0  0  0  0  0  0  0  0  0
    2.8579    0.8250    0.0000 C   0  0  0  0  0  0  0  0  0  0  0  0
    2.8579    0.0000    0.0000 O   0  0  0  0  0  0  0  0  0  0  0  0
    2.1434    1.2375    0.0000 O   0  0  0  0  0  0  0  0  0  0  0  0
    1.4289    0.8250    0.0000 C   0  0  0  0  0  0  0  0  0  0  0  0
    1.4289    0.0000    0.0000 C   0  0  0  0  0  0  0  0  0  0  0  0
    0.7145   -0.4125    0.0000 C   0  0  0  0  0  0  0  0  0  0  0  0
    0.0000    0.0000    0.0000 C   0  0  0  0  0  0  0  0  0  0  0  0
    0.0000    0.8250    0.0000 C   0  0  0  0  0  0  0  0  0  0  0  0
    0.7145    1.2375    0.0000 C   0  0  0  0  0  0  0  0  0  0  0  0
    0.7145    2.0625    0.0000 C   0  0  0  0  0  0  0  0  0  0  0  0
    1.4289    2.4750    0.0000 O   0  0  0  0  0  0  0  0  0  0  0  0
    0.0000    2.4750    0.0000 O   0  0  0  0  0  0  0  0  0  0  0  0
  1  2  1  0
  2  3  1  0
  3  4  1  0
  4  5  1  0
  5  6  1  0
  6  7  1  0
  7  8  1  0
  2  9  2  0
  3 10  1  0
 11 12  1  0
 12 13  2  0
 12 14  1  0
 14 15  1  0
 15 16  2  0
 16 17  1  0
 17 18  2  0
 18 19  1  0
 19 20  2  0
 15 20  1  0
 20 21  1  0
 21 22  1  0
 21 23  2  0
M  END

> <chembl_id>
CHEMBL1697753

> <chembl_pref_name>
ASPIRIN DL-LYSINE


$$$$

     RDKit          2D

 24 26  0  0  0  0  0  0  0  0999 V2000
   -4.3748   -7.9742    0.0000 C   0  0  0  0  0  0  0  0  0  0  0  0
   -4.3572   -8.8024    0.0000 C   0  0  0  0  0  0  0  0  0  0  0  0
   -3.6359   -9.2016    0.0000 C   0  0  0  0  0  0  0  0  0  0  0  0
   -2.9276   -8.7694    0.0000 C   0  0  0  0  0  0  0  0  0  0  0  0
   -2.9492   -7.9381    0.0000 C   0  0  0  0  0  0  0  0  0  0  0  0
   -3.6752   -7.5469    0.0000 C   0  0  0  0  0  0  0  0  0  0  0  0
   -2.2018   -9.1671    0.0000 C   0  0  0  0  0  0  0  0  0  0  0  0
   -2.1817   -9.9929    0.0000 O   0  0  0  0  0  0  0  0  0  0  0  0
   -1.4960   -8.7347    0.0000 O   0  0  0  0  0  0  0  0  0  0  0  0
   -0.7702   -9.1325    0.0000 C   0  0  0  0  0  0  0  0  0  0  0  0
   -0.6664   -9.9498    0.0000 C   0  0  0  0  0  0  0  0  0  0  0  0
    0.1457  -10.1010    0.0000 O   0  0  0  0  0  0  0  0  0  0  0  0
   -0.0256   -8.7740    0.0000 C   0  0  0  0  0  0  0  0  0  0  0  0
    0.5352   -9.3758    0.0000 C   0  0  0  0  0  0  0  0  0  0  0  0
    1.2812   -9.0272    0.0000 C   0  0  0  0  0  0  0  0  0  0  0  0
    1.1789   -8.2098    0.0000 C   0  0  0  0  0  0  0  0  0  0  0  0
    0.3697   -8.0518    0.0000 O   0  0  0  0  0  0  0  0  0  0  0  0
    1.1314   -9.9461    0.0000 H   0  0  0  0  0  0  0  0  0  0  0  0
   -0.6313   -8.2006    0.0000 H   0  0  0  0  0  0  0  0  0  0  0  0
    2.0054   -9.4237    0.0000 O   0  0  0  0  0  0  0  0  0  0  0  0
   -3.6174  -10.0274    0.0000 O   0  0  0  0  0  0  0  0  0  0  0  0
   -4.3197  -10.4543    0.0000 C   0  0  0  0  0  0  0  0  0  0  0  0
   -5.0447  -10.0595    0.0000 O   0  0  0  0  0  0  0  0  0  0  0  0
   -4.3012  -11.2802    0.0000 C   0  0  0  0  0  0  0  0  0  0  0  0
 11 12  1  0
 12 14  1  0
 13 10  1  0
 13 14  1  0
  6  1  1  0
  1  2  2  0
  4  7  1  0
  3  4  2  0
  7  8  2  0
 14 15  1  0
 15 16  1  0
 16 17  1  0
 17 13  1  0
 14 18  1  6
  7  9  1  0
 13 19  1  6
  4  5  1  0
 15 20  1  1
 10  9  1  6
  3 21  1  0
 10 11  1  0
 21 22  1  0
  2  3  1  0
 22 23  2  0
  5  6  2  0
 22 24  1  0
M  END

> <chembl_id>
CHEMBL458500

> <chembl_pref_name>
None


$$$$

     RDKit          2D

 21 22  0  0  0  0  0  0  0  0999 V2000
   12.7160  -10.6482    0.0000 C   0  0  0  0  0  0  0  0  0  0  0  0
   12.3115   -9.9425    0.0000 C   0  0  0  0  0  0  0  0  0  0  0  0
   11.9026  -10.6457    0.0000 C   0  0  0  0  0  0  0  0  0  0  0  0
   11.9252   -7.8932    0.0000 C   0  0  0  0  0  0  0  0  0  0  0  0
   12.3033   -8.6177    0.0000 C   0  0  0  0  0  0  0  0  0  0  0  0
   12.7417   -7.9280    0.0000 C   0  0  0  0  0  0  0  0  0  0  0  0
   10.1144   -8.8818    0.0000 C   0  0  0  0  0  0  0  0  0  0  0  0
   10.1133   -9.7013    0.0000 C   0  0  0  0  0  0  0  0  0  0  0  0
   10.8213  -10.1103    0.0000 C   0  0  0  0  0  0  0  0  0  0  0  0
   10.8195   -8.4729    0.0000 C   0  0  0  0  0  0  0  0  0  0  0  0
   11.5282   -8.8782    0.0000 C   0  0  0  0  0  0  0  0  0  0  0  0
   11.5329   -9.6968    0.0000 C   0  0  0  0  0  0  0  0  0  0  0  0
   12.7903   -9.2801    0.0000 N   0  0  0  0  0  0  0  0  0  0  0  0
    9.4052  -10.1093    0.0000 O   0  0  0  0  0  0  0  0  0  0  0  0
    9.4066   -8.4733    0.0000 C   0  0  0  0  0  0  0  0  0  0  0  0
    9.4064   -7.6561    0.0000 O   0  0  0  0  0  0  0  0  0  0  0  0
    8.6990   -8.8821    0.0000 O   0  0  0  0  0  0  0  0  0  0  0  0
   13.6075   -9.2753    0.0000 O   0  0  0  0  0  1  0  0  0  0  0  0
    9.4046  -10.9265    0.0000 C   0  0  0  0  0  0  0  0  0  0  0  0
    8.6966  -11.3346    0.0000 C   0  0  0  0  0  0  0  0  0  0  0  0
   10.1120  -11.3357    0.0000 O   0  0  0  0  0  0  0  0  0  0  0  0
  2  1  1  0
  3  2  1  0
  5  4  1  0
  6  5  1  0
  7  8  2  0
  8  9  1  0
  9 12  2  0
 11 10  2  0
 10  7  1  0
 11 12  1  0
 12  2  1  0
  2 13  1  0
 13  5  1  0
  5 11  1  0
  8 14  1  0
  7 15  1  0
 15 16  2  0
 15 17  1  0
 13 18  1  0
 14 19  1  0
 19 20  1  0
 19 21  2  0
M  RAD  1  18   2
M  END

> <chembl_id>
CHEMBL4168118

> <chembl_pref_name>
None


$$$$

     RDKit          2D

 24 26  0  0  0  0  0  0  0  0999 V2000
   -4.3277   -6.3676    0.0000 O   0  0  0  0  0  0  0  0  0  0  0  0
   -3.6115   -6.7814    0.0000 C   0  0  0  0  0  0  0  0  0  0  0  0
   -3.5262   -7.6004    0.0000 C   0  0  0  0  0  0  0  0  0  0  0  0
   -2.7183   -7.7699    0.0000 O   0  0  0  0  0  0  0  0  0  0  0  0
   -2.8594   -6.4401    0.0000 C   0  0  0  0  0  0  0  0  0  0  0  0
   -2.3085   -7.0542    0.0000 C   0  0  0  0  0  0  0  0  0  0  0  0
   -1.5553   -6.7228    0.0000 C   0  0  0  0  0  0  0  0  0  0  0  0
   -1.6431   -5.9037    0.0000 C   0  0  0  0  0  0  0  0  0  0  0  0
   -2.4481   -5.7317    0.0000 O   0  0  0  0  0  0  0  0  0  0  0  0
   -3.4516   -5.8536    0.0000 H   0  0  0  0  0  0  0  0  0  0  0  0
   -1.7299   -7.6374    0.0000 H   0  0  0  0  0  0  0  0  0  0  0  0
   -0.8449   -7.1352    0.0000 O   0  0  0  0  0  0  0  0  0  0  0  0
   -0.1284   -6.7262    0.0000 C   0  0  0  0  0  0  0  0  0  0  0  0
    0.5861   -7.1386    0.0000 C   0  0  0  0  0  0  0  0  0  0  0  0
   -0.1264   -5.9006    0.0000 O   0  0  0  0  0  0  0  0  0  0  0  0
    0.5803   -7.9621    0.0000 C   0  0  0  0  0  0  0  0  0  0  0  0
    1.2939   -8.3786    0.0000 C   0  0  0  0  0  0  0  0  0  0  0  0
    2.0114   -7.9654    0.0000 C   0  0  0  0  0  0  0  0  0  0  0  0
    2.0107   -7.1355    0.0000 C   0  0  0  0  0  0  0  0  0  0  0  0
    1.2964   -6.7269    0.0000 C   0  0  0  0  0  0  0  0  0  0  0  0
   -0.1373   -8.3734    0.0000 O   0  0  0  0  0  0  0  0  0  0  0  0
   -0.1414   -9.1990    0.0000 C   0  0  0  0  0  0  0  0  0  0  0  0
   -0.8589   -9.6061    0.0000 C   0  0  0  0  0  0  0  0  0  0  0  0
    0.5720   -9.6132    0.0000 O   0  0  0  0  0  0  0  0  0  0  0  0
  2  3  1  0
  7 12  1  1
 12 13  1  0
  2  1  1  6
 13 14  1  0
  3  4  1  0
 13 15  2  0
  4  6  1  0
 14 16  2  0
  6  7  1  0
 16 17  1  0
  7  8  1  0
 17 18  2  0
  8  9  1  0
 18 19  1  0
  9  5  1  0
 19 20  2  0
 20 14  1  0
  5  2  1  0
 16 21  1  0
  5 10  1  6
 21 22  1  0
  5  6  1  0
 22 23  1  0
  6 11  1  6
 22 24  2  0
M  END

> <chembl_id>
CHEMBL457234

> <chembl_pref_name>
None


$$$$

     RDKit          2D

 33 36  0  0  0  0  0  0  0  0999 V2000
   -4.2870   -5.4790    0.0000 C   0  0  0  0  0  0  0  0  0  0  0  0
   -4.2693   -6.3062    0.0000 C   0  0  0  0  0  0  0  0  0  0  0  0
   -3.5453   -6.7026    0.0000 C   0  0  0  0  0  0  0  0  0  0  0  0
   -2.8385   -6.2731    0.0000 C   0  0  0  0  0  0  0  0  0  0  0  0
   -2.8602   -5.4428    0.0000 C   0  0  0  0  0  0  0  0  0  0  0  0
   -3.5848   -5.0501    0.0000 C   0  0  0  0  0  0  0  0  0  0  0  0
   -2.1142   -6.6680    0.0000 C   0  0  0  0  0  0  0  0  0  0  0  0
   -2.0941   -7.4928    0.0000 O   0  0  0  0  0  0  0  0  0  0  0  0
   -1.4099   -6.2383    0.0000 O   0  0  0  0  0  0  0  0  0  0  0  0
   -0.6856   -6.6332    0.0000 C   0  0  0  0  0  0  0  0  0  0  0  0
   -0.5814   -7.4495    0.0000 C   0  0  0  0  0  0  0  0  0  0  0  0
    0.2295   -7.6013    0.0000 O   0  0  0  0  0  0  0  0  0  0  0  0
    0.0577   -6.2776    0.0000 C   0  0  0  0  0  0  0  0  0  0  0  0
    0.6206   -6.8776    0.0000 C   0  0  0  0  0  0  0  0  0  0  0  0
    1.3652   -6.5277    0.0000 C   0  0  0  0  0  0  0  0  0  0  0  0
    1.2625   -5.7113    0.0000 C   0  0  0  0  0  0  0  0  0  0  0  0
    0.4544   -5.5569    0.0000 O   0  0  0  0  0  0  0  0  0  0  0  0
    1.2148   -7.4458    0.0000 H   0  0  0  0  0  0  0  0  0  0  0  0
   -0.5462   -5.7022    0.0000 H   0  0  0  0  0  0  0  0  0  0  0  0
    2.0879   -6.9255    0.0000 O   0  0  0  0  0  0  0  0  0  0  0  0
   -3.5267   -7.5274    0.0000 O   0  0  0  0  0  0  0  0  0  0  0  0
   -4.2317   -7.9559    0.0000 C   0  0  0  0  0  0  0  0  0  0  0  0
   -4.9553   -7.5596    0.0000 O   0  0  0  0  0  0  0  0  0  0  0  0
    2.7938   -6.4985    0.0000 C   0  0  0  0  0  0  0  0  0  0  0  0
    3.5166   -6.8963    0.0000 C   0  0  0  0  0  0  0  0  0  0  0  0
    2.7770   -5.6737    0.0000 O   0  0  0  0  0  0  0  0  0  0  0  0
    3.5307   -7.7218    0.0000 C   0  0  0  0  0  0  0  0  0  0  0  0
    4.2526   -8.1196    0.0000 C   0  0  0  0  0  0  0  0  0  0  0  0
    4.9595   -7.6925    0.0000 C   0  0  0  0  0  0  0  0  0  0  0  0
    4.9399   -6.8634    0.0000 C   0  0  0  0  0  0  0  0  0  0  0  0
    4.2175   -6.4694    0.0000 C   0  0  0  0  0  0  0  0  0  0  0  0
    4.1979   -5.6447    0.0000 O   0  0  0  0  0  0  0  0  0  0  0  0
   -4.2131   -8.7807    0.0000 C   0  0  0  0  0  0  0  0  0  0  0  0
 14 15  1  0
 15 16  1  0
 16 17  1  0
 17 13  1  0
 14 18  1  6
  7  9  1  0
 13 19  1  6
  4  5  1  0
 15 20  1  1
 10  9  1  6
  3 21  1  0
 10 11  1  0
 21 22  1  0
  2  3  1  0
 22 23  2  0
  5  6  2  0
 20 24  1  0
 11 12  1  0
 24 25  1  0
 12 14  1  0
 24 26  2  0
 13 10  1  0
 25 27  2  0
 13 14  1  0
 27 28  1  0
  6  1  1  0
 28 29  2  0
  1  2  2  0
 29 30  1  0
  4  7  1  0
 30 31  2  0
 31 25  1  0
  3  4  2  0
 31 32  1  0
  7  8  2  0
 22 33  1  0
M  END

> <chembl_id>
CHEMBL457443

> <chembl_pref_name>
None


$$$$

     RDKit          2D

 24 25  0  0  0  0  0  0  0  0999 V2000
    1.4774    0.0490    0.0000 O   0  0  0  0  0  0  0  0  0  0  0  0
    0.7622   -1.1861    0.0000 O   0  0  0  0  0  0  0  0  0  0  0  0
    0.7596   -0.3635    0.0000 C   0  0  0  0  0  0  0  0  0  0  0  0
    0.0444    0.0479    0.0000 C   0  0  0  0  0  0  0  0  0  0  0  0
    0.0438    0.8741    0.0000 C   0  0  0  0  0  0  0  0  0  0  0  0
   -0.6713    1.2854    0.0000 C   0  0  0  0  0  0  0  0  0  0  0  0
   -1.3858    0.8706    0.0000 C   0  0  0  0  0  0  0  0  0  0  0  0
   -1.3831    0.0480    0.0000 C   0  0  0  0  0  0  0  0  0  0  0  0
   -0.6680   -0.3634    0.0000 C   0  0  0  0  0  0  0  0  0  0  0  0
   -0.6674   -1.1896    0.0000 O   0  0  0  0  0  0  0  0  0  0  0  0
   -1.3819   -1.6044    0.0000 C   0  0  0  0  0  0  0  0  0  0  0  0
   -2.0970   -1.1930    0.0000 C   0  0  0  0  0  0  0  0  0  0  0  0
   -1.3792   -2.4270    0.0000 O   0  0  0  0  0  0  0  0  0  0  0  0
    2.8521   -2.4582    0.0000 O   0  0  0  0  0  0  0  0  0  0  0  0
    2.8712   -1.6322    0.0000 C   0  0  0  0  0  0  0  0  0  0  0  0
    2.1661   -1.2039    0.0000 C   0  0  0  0  0  0  0  0  0  0  0  0
    1.4419   -1.6015    0.0000 O   0  0  0  0  0  0  0  0  0  0  0  0
    2.1852   -0.3779    0.0000 C   0  0  0  0  0  0  0  0  0  0  0  0
    2.9095    0.0198    0.0000 C   0  0  0  0  0  0  0  0  0  0  0  0
    2.9264    0.8422    0.0000 O   0  0  0  0  0  0  0  0  0  0  0  0
    3.6146   -0.4085    0.0000 C   0  0  0  0  0  0  0  0  0  0  0  0
    3.5954   -1.2345    0.0000 O   0  0  0  0  0  0  0  0  0  0  0  0
    4.3366   -0.0144    0.0000 C   0  0  0  0  0  0  0  0  0  0  0  0
    5.0417   -0.4428    0.0000 O   0  0  0  0  0  0  0  0  0  0  0  0
 10 11  1  0
 11 12  1  0
 11 13  2  0
  2  3  2  0
  3  1  1  0
  3  4  1  0
  4  5  1  0
  5  6  2  0
  6  7  1  0
  7  8  2  0
  8  9  1  0
  4  9  2  0
  9 10  1  0
 15 14  1  6
 15 16  1  0
 16 17  1  6
 16 18  1  0
 18  1  1  1
 18 19  1  0
 19 20  1  6
 19 21  1  0
 21 22  1  0
 21 23  1  1
 23 24  1  0
 15 22  1  0
M  END

> <chembl_id>
CHEMBL2016951

> <chembl_pref_name>
None


$$$$

     RDKit          2D

 23 23  0  0  0  0  0  0  0  0999 V2000
    9.5738   -6.4591    0.0000 C   0  0  0  0  0  0  0  0  0  0  0  0
    9.5726   -7.2786    0.0000 C   0  0  0  0  0  0  0  0  0  0  0  0
   10.2807   -7.6876    0.0000 C   0  0  0  0  0  0  0  0  0  0  0  0
   10.9903   -7.2781    0.0000 C   0  0  0  0  0  0  0  0  0  0  0  0
   10.9875   -6.4555    0.0000 C   0  0  0  0  0  0  0  0  0  0  0  0
   10.2789   -6.0502    0.0000 C   0  0  0  0  0  0  0  0  0  0  0  0
   11.6936   -6.0442    0.0000 O   0  0  0  0  0  0  0  0  0  0  0  0
   12.4029   -6.4501    0.0000 C   0  0  0  0  0  0  0  0  0  0  0  0
   13.1091   -6.0389    0.0000 C   0  0  0  0  0  0  0  0  0  0  0  0
   12.4060   -7.2673    0.0000 O   0  0  0  0  0  0  0  0  0  0  0  0
   10.2764   -5.2330    0.0000 C   0  0  0  0  0  0  0  0  0  0  0  0
   10.9829   -4.8223    0.0000 O   0  0  0  0  0  0  0  0  0  0  0  0
    9.5675   -4.8265    0.0000 O   0  0  0  0  0  0  0  0  0  0  0  0
    9.5651   -4.0094    0.0000 C   0  0  0  0  0  0  0  0  0  0  0  0
    8.8561   -3.6029    0.0000 O   0  0  0  0  0  0  0  0  0  0  0  0
    8.8537   -2.7857    0.0000 N   0  0  0  0  0  0  0  0  0  0  0  0
    8.1448   -2.3792    0.0000 N   0  0  0  0  0  0  0  0  0  0  0  0
    8.1389   -1.5601    0.0000 N   0  0  0  0  0  0  0  0  0  0  0  0
    8.8437   -1.1464    0.0000 C   0  0  0  0  0  0  0  0  0  0  0  0
    9.5543   -1.5499    0.0000 C   0  0  0  0  0  0  0  0  0  0  0  0
    7.4331   -2.7818    0.0000 O   0  0  0  0  0  0  0  0  0  0  0  0
    7.4283   -1.1566    0.0000 C   0  0  0  0  0  0  0  0  0  0  0  0
    7.4224   -0.3394    0.0000 C   0  0  0  0  0  0  0  0  0  0  0  0
  1  2  2  0
  2  3  1  0
  3  4  2  0
  4  5  1  0
  5  6  2  0
  6  1  1  0
  5  7  1  0
  7  8  1  0
  8  9  1  0
  8 10  2  0
  6 11  1  0
 11 12  2  0
 11 13  1  0
 13 14  1  0
 14 15  1  0
 15 16  1  0
 16 17  2  0
 17 18  1  0
 18 19  1  0
 19 20  1  0
 17 21  1  0
 18 22  1  0
 22 23  1  0
M  CHG  2  17   1  21  -1
M  END

> <chembl_id>
CHEMBL2431795

> <chembl_pref_name>
None


$$$$

     RDKit          2D

 21 21  0  0  0  0  0  0  0  0999 V2000
    1.2990   -0.7500    0.0000 C   0  0  0  0  0  0  0  0  0  0  0  0
    1.2990    0.7500    0.0000 C   0  0  0  0  0  0  0  0  0  0  0  0
    0.0000    1.5000    0.0000 C   0  0  0  0  0  0  0  0  0  0  0  0
   -1.2990    0.7500    0.0000 C   0  0  0  0  0  0  0  0  0  0  0  0
   -1.2990   -0.7500    0.0000 C   0  0  0  0  0  0  0  0  0  0  0  0
    0.0000   -1.5000    0.0000 C   0  0  0  0  0  0  0  0  0  0  0  0
   -2.5972   -1.5031    0.0000 O   0  0  0  0  0  0  0  0  0  0  0  0
   -2.5973    1.5031    0.0000 C   0  0  0  0  0  0  0  0  0  0  0  0
   -3.6375    0.9049    0.0000 O   0  0  0  0  0  0  0  0  0  0  0  0
   -2.5951   -3.0039    0.0000 C   0  0  0  0  0  0  0  0  0  0  0  0
   -1.5548   -3.6021    0.0000 C   0  0  0  0  0  0  0  0  0  0  0  0
   -3.6331   -3.6061    0.0000 O   0  0  0  0  0  0  0  0  0  0  0  0
   -2.5951    3.0039    0.0000 O   0  0  0  0  0  0  0  0  0  0  0  0
   -3.8933    3.7570    0.0000 C   0  0  0  0  0  0  0  0  0  0  0  0
   -3.8912    5.2578    0.0000 C   0  0  0  0  0  0  0  0  0  0  0  0
   -5.1894    6.0109    0.0000 C   0  0  0  0  0  0  0  0  0  0  0  0
   -5.1873    7.5117    0.0000 C   0  0  0  0  0  0  0  0  0  0  0  0
   -6.4855    8.2648    0.0000 O   0  0  0  0  0  0  0  0  0  0  0  0
   -6.4834    9.7656    0.0000 N   0  0  0  0  0  0  0  0  0  0  0  0
   -7.5214   10.3677    0.0000 O   0  0  0  0  0  0  0  0  0  0  0  0
   -5.4431   10.3638    0.0000 O   0  0  0  0  0  0  0  0  0  0  0  0
  1  2  2  0
  2  3  1  0
  3  4  2  0
  4  5  1  0
  5  6  2  0
  6  1  1  0
  5  7  1  0
  4  8  1  0
  8  9  2  0
  7 10  1  0
 10 11  1  0
 10 12  2  0
  8 13  1  0
 13 14  1  0
 14 15  1  0
 15 16  1  0
 16 17  1  0
 17 18  1  0
 18 19  1  0
 19 20  2  0
 19 21  1  0
M  CHG  2  19   1  21  -1
M  END

> <chembl_id>
CHEMBL3601280

> <chembl_pref_name>
None


$$$$

     RDKit          2D

 33 36  0  0  0  0  0  0  0  0999 V2000
   -5.0004  -12.6653    0.0000 C   0  0  0  0  0  0  0  0  0  0  0  0
   -5.0015  -13.4932    0.0000 C   0  0  0  0  0  0  0  0  0  0  0  0
   -4.2856  -13.9043    0.0000 C   0  0  0  0  0  0  0  0  0  0  0  0
   -3.5682  -13.4928    0.0000 C   0  0  0  0  0  0  0  0  0  0  0  0
   -3.5710  -12.6617    0.0000 C   0  0  0  0  0  0  0  0  0  0  0  0
   -4.2874  -12.2502    0.0000 C   0  0  0  0  0  0  0  0  0  0  0  0
   -2.8571  -12.2441    0.0000 O   0  0  0  0  0  0  0  0  0  0  0  0
   -2.8520  -13.9023    0.0000 C   0  0  0  0  0  0  0  0  0  0  0  0
   -2.8508  -14.7278    0.0000 O   0  0  0  0  0  0  0  0  0  0  0  0
   -2.1372  -13.4905    0.0000 O   0  0  0  0  0  0  0  0  0  0  0  0
   -1.4211  -13.9001    0.0000 C   0  0  0  0  0  0  0  0  0  0  0  0
   -1.3357  -14.7191    0.0000 C   0  0  0  0  0  0  0  0  0  0  0  0
   -0.5279  -14.8885    0.0000 O   0  0  0  0  0  0  0  0  0  0  0  0
   -0.6690  -13.5629    0.0000 C   0  0  0  0  0  0  0  0  0  0  0  0
   -0.1223  -14.1771    0.0000 C   0  0  0  0  0  0  0  0  0  0  0  0
    0.6310  -13.8415    0.0000 C   0  0  0  0  0  0  0  0  0  0  0  0
    0.5473  -13.0224    0.0000 C   0  0  0  0  0  0  0  0  0  0  0  0
   -0.2577  -12.8504    0.0000 O   0  0  0  0  0  0  0  0  0  0  0  0
   -1.2612  -12.9723    0.0000 H   0  0  0  0  0  0  0  0  0  0  0  0
    0.4605  -14.7561    0.0000 H   0  0  0  0  0  0  0  0  0  0  0  0
    1.3455  -14.2580    0.0000 O   0  0  0  0  0  0  0  0  0  0  0  0
    2.0620  -13.8449    0.0000 C   0  0  0  0  0  0  0  0  0  0  0  0
    2.7765  -14.2614    0.0000 C   0  0  0  0  0  0  0  0  0  0  0  0
    2.0640  -13.0193    0.0000 O   0  0  0  0  0  0  0  0  0  0  0  0
    2.7707  -15.0850    0.0000 C   0  0  0  0  0  0  0  0  0  0  0  0
    3.4843  -15.4973    0.0000 C   0  0  0  0  0  0  0  0  0  0  0  0
    4.2018  -15.0882    0.0000 C   0  0  0  0  0  0  0  0  0  0  0  0
    4.2011  -14.2584    0.0000 C   0  0  0  0  0  0  0  0  0  0  0  0
    3.4868  -13.8456    0.0000 C   0  0  0  0  0  0  0  0  0  0  0  0
    2.0531  -15.4921    0.0000 O   0  0  0  0  0  0  0  0  0  0  0  0
    2.0490  -16.3177    0.0000 C   0  0  0  0  0  0  0  0  0  0  0  0
    1.3315  -16.7290    0.0000 C   0  0  0  0  0  0  0  0  0  0  0  0
    2.7624  -16.7360    0.0000 O   0  0  0  0  0  0  0  0  0  0  0  0
  4  8  1  0
 15 16  1  0
 16 17  1  0
 17 18  1  0
 18 14  1  0
  8  9  2  0
 14 19  1  6
  4  5  1  0
 15 20  1  6
  8 10  1  0
 16 21  1  1
  2  3  1  0
 21 22  1  0
 11 10  1  6
 22 23  1  0
 11 12  1  0
 22 24  2  0
  5  6  2  0
 23 25  2  0
  6  1  1  0
 25 26  1  0
 12 13  1  0
 26 27  2  0
 13 15  1  0
 27 28  1  0
 14 11  1  0
 28 29  2  0
 29 23  1  0
 14 15  1  0
 25 30  1  0
  1  2  2  0
 30 31  1  0
  5  7  1  0
 31 32  1  0
  3  4  2  0
 31 33  2  0
M  END

> <chembl_id>
CHEMBL456555

> <chembl_pref_name>
None


$$$$

     RDKit          2D

 27 29  0  0  0  0  0  0  0  0999 V2000
   -4.8145    1.3002    0.0000 C   0  0  0  0  0  0  0  0  0  0  0  0
   -4.8157    0.4727    0.0000 C   0  0  0  0  0  0  0  0  0  0  0  0
   -4.1009    0.0598    0.0000 C   0  0  0  0  0  0  0  0  0  0  0  0
   -3.3842    0.4731    0.0000 C   0  0  0  0  0  0  0  0  0  0  0  0
   -3.3871    1.3039    0.0000 C   0  0  0  0  0  0  0  0  0  0  0  0
   -4.1027    1.7130    0.0000 C   0  0  0  0  0  0  0  0  0  0  0  0
   -2.6742    1.7191    0.0000 O   0  0  0  0  0  0  0  0  0  0  0  0
   -2.6691    0.0618    0.0000 C   0  0  0  0  0  0  0  0  0  0  0  0
   -2.6773    2.5443    0.0000 C   0  0  0  0  0  0  0  0  0  0  0  0
   -1.9642    2.9594    0.0000 C   0  0  0  0  0  0  0  0  0  0  0  0
   -3.3933    2.9541    0.0000 O   0  0  0  0  0  0  0  0  0  0  0  0
   -2.6678   -0.7634    0.0000 O   0  0  0  0  0  0  0  0  0  0  0  0
   -1.9551    0.4754    0.0000 O   0  0  0  0  0  0  0  0  0  0  0  0
   -1.2400    0.0640    0.0000 C   0  0  0  0  0  0  0  0  0  0  0  0
   -1.1543   -0.7545    0.0000 C   0  0  0  0  0  0  0  0  0  0  0  0
   -0.3469   -0.9249    0.0000 O   0  0  0  0  0  0  0  0  0  0  0  0
   -0.4886    0.4026    0.0000 C   0  0  0  0  0  0  0  0  0  0  0  0
    0.0605   -0.2100    0.0000 C   0  0  0  0  0  0  0  0  0  0  0  0
    0.8131    0.1228    0.0000 C   0  0  0  0  0  0  0  0  0  0  0  0
    0.7289    0.9415    0.0000 C   0  0  0  0  0  0  0  0  0  0  0  0
   -0.0755    1.1143    0.0000 O   0  0  0  0  0  0  0  0  0  0  0  0
    0.6417   -0.7919    0.0000 H   0  0  0  0  0  0  0  0  0  0  0  0
   -1.0794    0.9919    0.0000 H   0  0  0  0  0  0  0  0  0  0  0  0
    1.5266   -0.2914    0.0000 O   0  0  0  0  0  0  0  0  0  0  0  0
    1.5247   -1.1166    0.0000 N   0  0  0  0  0  0  0  0  0  0  0  0
    2.2395   -1.5365    0.0000 O   0  0  0  0  0  0  0  0  0  0  0  0
    0.8106   -1.5331    0.0000 O   0  0  0  0  0  0  0  0  0  0  0  0
  1  2  2  0
 14 13  1  6
 14 15  1  0
  5  7  1  0
  3  4  2  0
 15 16  1  0
 16 18  1  0
 17 14  1  0
 17 18  1  0
  4  8  1  0
  7  9  1  0
  4  5  1  0
  9 10  1  0
 18 19  1  0
 19 20  1  0
 20 21  1  0
 21 17  1  0
  2  3  1  0
 18 22  1  6
  9 11  2  0
 17 23  1  6
  5  6  2  0
 19 24  1  1
  8 12  2  0
 24 25  1  0
  6  1  1  0
  8 13  1  0
 25 26  2  0
 25 27  1  0
M  CHG  2  25   1  27  -1
M  END

> <chembl_id>
CHEMBL585137

> <chembl_pref_name>
None


$$$$

     RDKit          2D

 27 29  0  0  0  0  0  0  0  0999 V2000
    5.3084   -1.4623    0.0000 O   0  0  0  0  0  0  0  0  0  0  0  0
    5.2983   -0.6366    0.0000 C   0  0  0  0  0  0  0  0  0  0  0  0
    5.9596   -0.1456    0.0000 C   0  0  0  0  0  0  0  0  0  0  0  0
    5.6949    0.6365    0.0000 O   0  0  0  0  0  0  0  0  0  0  0  0
    4.6237   -0.1621    0.0000 C   0  0  0  0  0  0  0  0  0  0  0  0
    4.8716    0.6233    0.0000 C   0  0  0  0  0  0  0  0  0  0  0  0
    4.2014    1.1017    0.0000 C   0  0  0  0  0  0  0  0  0  0  0  0
    3.5392    0.6122    0.0000 C   0  0  0  0  0  0  0  0  0  0  0  0
    3.8002   -0.1689    0.0000 O   0  0  0  0  0  0  0  0  0  0  0  0
    5.0764    1.4203    0.0000 H   0  0  0  0  0  0  0  0  0  0  0  0
    4.4173   -0.9710    0.0000 H   0  0  0  0  0  0  0  0  0  0  0  0
    4.1945    1.9275    0.0000 O   0  0  0  0  0  0  0  0  0  0  0  0
    4.9062    2.3463    0.0000 N   0  0  0  0  0  0  0  0  0  0  0  0
    4.9036    3.1761    0.0000 O   0  0  0  0  0  0  0  0  0  0  0  0
    5.6289    1.9434    0.0000 O   0  0  0  0  0  0  0  0  0  0  0  0
    6.0286   -1.8663    0.0000 C   0  0  0  0  0  0  0  0  0  0  0  0
    6.0387   -2.6921    0.0000 O   0  0  0  0  0  0  0  0  0  0  0  0
    6.7386   -1.4447    0.0000 C   0  0  0  0  0  0  0  0  0  0  0  0
    7.4564   -1.8514    0.0000 C   0  0  0  0  0  0  0  0  0  0  0  0
    8.1660   -1.4305    0.0000 C   0  0  0  0  0  0  0  0  0  0  0  0
    8.1563   -0.6039    0.0000 C   0  0  0  0  0  0  0  0  0  0  0  0
    7.4311   -0.2000    0.0000 C   0  0  0  0  0  0  0  0  0  0  0  0
    6.7246   -0.6233    0.0000 C   0  0  0  0  0  0  0  0  0  0  0  0
    7.4646   -2.6771    0.0000 O   0  0  0  0  0  0  0  0  0  0  0  0
    8.1839   -3.0829    0.0000 C   0  0  0  0  0  0  0  0  0  0  0  0
    8.1921   -3.9086    0.0000 O   0  0  0  0  0  0  0  0  0  0  0  0
    8.8949   -2.6629    0.0000 C   0  0  0  0  0  0  0  0  0  0  0  0
 12 13  1  0
  2  1  1  1
  3  4  1  0
 13 14  2  0
 13 15  1  0
  4  6  1  0
  1 16  1  0
  6  7  1  0
 16 17  2  0
  7  8  1  0
 16 18  1  0
  8  9  1  0
 18 19  2  0
  9  5  1  0
 19 20  1  0
  5  2  1  0
 20 21  2  0
  6 10  1  6
 21 22  1  0
  5  6  1  0
 22 23  2  0
 23 18  1  0
  5 11  1  6
 19 24  1  0
  2  3  1  0
 24 25  1  0
  7 12  1  6
 25 26  2  0
 25 27  1  0
M  CHG  2  13   1  15  -1
M  END

> <chembl_id>
CHEMBL567716

> <chembl_pref_name>
None


$$$$

     RDKit          2D

 32 35  0  0  0  0  0  0  0  0999 V2000
    6.7054  -16.8437    0.0000 C   0  0  0  0  0  0  0  0  0  0  0  0
    6.7231  -17.6709    0.0000 C   0  0  0  0  0  0  0  0  0  0  0  0
    7.4474  -18.0673    0.0000 C   0  0  0  0  0  0  0  0  0  0  0  0
    8.1542  -17.6378    0.0000 C   0  0  0  0  0  0  0  0  0  0  0  0
    8.1324  -16.8073    0.0000 C   0  0  0  0  0  0  0  0  0  0  0  0
    7.4079  -16.4146    0.0000 C   0  0  0  0  0  0  0  0  0  0  0  0
    8.8787  -18.0328    0.0000 C   0  0  0  0  0  0  0  0  0  0  0  0
    8.8988  -18.8577    0.0000 O   0  0  0  0  0  0  0  0  0  0  0  0
    9.5829  -17.6030    0.0000 O   0  0  0  0  0  0  0  0  0  0  0  0
   10.3072  -17.9979    0.0000 C   0  0  0  0  0  0  0  0  0  0  0  0
   10.4115  -18.8144    0.0000 C   0  0  0  0  0  0  0  0  0  0  0  0
   11.2226  -18.9662    0.0000 O   0  0  0  0  0  0  0  0  0  0  0  0
   11.0507  -17.6423    0.0000 C   0  0  0  0  0  0  0  0  0  0  0  0
   11.6136  -18.2423    0.0000 C   0  0  0  0  0  0  0  0  0  0  0  0
   12.3585  -17.8924    0.0000 C   0  0  0  0  0  0  0  0  0  0  0  0
   12.2558  -17.0760    0.0000 C   0  0  0  0  0  0  0  0  0  0  0  0
   11.4475  -16.9216    0.0000 O   0  0  0  0  0  0  0  0  0  0  0  0
   12.2081  -18.8107    0.0000 H   0  0  0  0  0  0  0  0  0  0  0  0
   10.4469  -17.0669    0.0000 H   0  0  0  0  0  0  0  0  0  0  0  0
   13.0812  -18.2902    0.0000 O   0  0  0  0  0  0  0  0  0  0  0  0
    7.4660  -18.8923    0.0000 O   0  0  0  0  0  0  0  0  0  0  0  0
    6.7608  -19.3208    0.0000 C   0  0  0  0  0  0  0  0  0  0  0  0
    6.0372  -18.9245    0.0000 O   0  0  0  0  0  0  0  0  0  0  0  0
   13.7873  -17.8632    0.0000 C   0  0  0  0  0  0  0  0  0  0  0  0
   14.5100  -18.2610    0.0000 C   0  0  0  0  0  0  0  0  0  0  0  0
   13.7705  -17.0384    0.0000 O   0  0  0  0  0  0  0  0  0  0  0  0
   14.5242  -19.0867    0.0000 C   0  0  0  0  0  0  0  0  0  0  0  0
   15.2463  -19.4845    0.0000 C   0  0  0  0  0  0  0  0  0  0  0  0
   15.9532  -19.0574    0.0000 C   0  0  0  0  0  0  0  0  0  0  0  0
   15.9336  -18.2281    0.0000 N   0  0  0  0  0  0  0  0  0  0  0  0
   15.2110  -17.8341    0.0000 C   0  0  0  0  0  0  0  0  0  0  0  0
    6.7794  -20.1458    0.0000 C   0  0  0  0  0  0  0  0  0  0  0  0
  7  8  2  0
 14 15  1  0
 15 16  1  0
 16 17  1  0
 17 13  1  0
 14 18  1  6
  7  9  1  0
 13 19  1  6
  4  5  1  0
 15 20  1  1
 10  9  1  6
  3 21  1  0
 10 11  1  0
 21 22  1  0
  2  3  1  0
 22 23  2  0
  5  6  2  0
 20 24  1  0
 11 12  1  0
 24 25  1  0
 12 14  1  0
 24 26  2  0
 13 10  1  0
 25 27  2  0
 13 14  1  0
 27 28  1  0
  6  1  1  0
 28 29  2  0
  1  2  2  0
 29 30  1  0
  4  7  1  0
 30 31  2  0
 31 25  1  0
  3  4  2  0
 22 32  1  0
M  END

> <chembl_id>
CHEMBL565400

> <chembl_pref_name>
None


$$$$

     RDKit          2D

 33 36  0  0  0  0  0  0  0  0999 V2000
    6.7096   -5.7006    0.0000 C   0  0  0  0  0  0  0  0  0  0  0  0
    6.7273   -6.5278    0.0000 C   0  0  0  0  0  0  0  0  0  0  0  0
    7.4515   -6.9243    0.0000 C   0  0  0  0  0  0  0  0  0  0  0  0
    8.1584   -6.4947    0.0000 C   0  0  0  0  0  0  0  0  0  0  0  0
    8.1366   -5.6645    0.0000 C   0  0  0  0  0  0  0  0  0  0  0  0
    7.4121   -5.2715    0.0000 C   0  0  0  0  0  0  0  0  0  0  0  0
    8.8829   -6.8897    0.0000 C   0  0  0  0  0  0  0  0  0  0  0  0
    8.9030   -7.7146    0.0000 O   0  0  0  0  0  0  0  0  0  0  0  0
    9.5871   -6.4599    0.0000 O   0  0  0  0  0  0  0  0  0  0  0  0
   10.3114   -6.8549    0.0000 C   0  0  0  0  0  0  0  0  0  0  0  0
   10.4157   -7.6713    0.0000 C   0  0  0  0  0  0  0  0  0  0  0  0
   11.2268   -7.8231    0.0000 O   0  0  0  0  0  0  0  0  0  0  0  0
   11.0549   -6.4992    0.0000 C   0  0  0  0  0  0  0  0  0  0  0  0
   11.6178   -7.0992    0.0000 C   0  0  0  0  0  0  0  0  0  0  0  0
   12.3626   -6.7493    0.0000 C   0  0  0  0  0  0  0  0  0  0  0  0
   12.2599   -5.9330    0.0000 C   0  0  0  0  0  0  0  0  0  0  0  0
   11.4517   -5.7785    0.0000 O   0  0  0  0  0  0  0  0  0  0  0  0
   12.2122   -7.6677    0.0000 H   0  0  0  0  0  0  0  0  0  0  0  0
   10.4510   -5.9238    0.0000 H   0  0  0  0  0  0  0  0  0  0  0  0
   13.0854   -7.1472    0.0000 O   0  0  0  0  0  0  0  0  0  0  0  0
    7.4701   -7.7493    0.0000 O   0  0  0  0  0  0  0  0  0  0  0  0
    6.7649   -8.1778    0.0000 C   0  0  0  0  0  0  0  0  0  0  0  0
    6.7835   -9.0028    0.0000 C   0  0  0  0  0  0  0  0  0  0  0  0
    6.0414   -7.7815    0.0000 O   0  0  0  0  0  0  0  0  0  0  0  0
   13.7915   -6.7202    0.0000 C   0  0  0  0  0  0  0  0  0  0  0  0
   14.5142   -7.1180    0.0000 C   0  0  0  0  0  0  0  0  0  0  0  0
   13.7746   -5.8953    0.0000 O   0  0  0  0  0  0  0  0  0  0  0  0
   14.5284   -7.9436    0.0000 C   0  0  0  0  0  0  0  0  0  0  0  0
   15.2505   -8.3414    0.0000 C   0  0  0  0  0  0  0  0  0  0  0  0
   15.9574   -7.9143    0.0000 C   0  0  0  0  0  0  0  0  0  0  0  0
   15.9378   -7.0851    0.0000 C   0  0  0  0  0  0  0  0  0  0  0  0
   15.2152   -6.6911    0.0000 C   0  0  0  0  0  0  0  0  0  0  0  0
   16.6422   -6.6556    0.0000 O   0  0  0  0  0  0  0  0  0  0  0  0
 14 15  1  0
 15 16  1  0
 16 17  1  0
 17 13  1  0
 14 18  1  6
  7  9  1  0
 13 19  1  6
  4  5  1  0
 15 20  1  1
 10  9  1  6
  3 21  1  0
 10 11  1  0
 21 22  1  0
  2  3  1  0
 22 23  1  0
  5  6  2  0
 22 24  2  0
 11 12  1  0
 20 25  1  0
 12 14  1  0
 25 26  1  0
 13 10  1  0
 25 27  2  0
 13 14  1  0
 26 28  2  0
  6  1  1  0
 28 29  1  0
  1  2  2  0
 29 30  2  0
  4  7  1  0
 30 31  1  0
  3  4  2  0
 31 32  2  0
 32 26  1  0
  7  8  2  0
 31 33  1  0
M  END

> <chembl_id>
CHEMBL565619

> <chembl_pref_name>
None


$$$$

     RDKit          2D

 33 36  0  0  0  0  0  0  0  0999 V2000
   10.6428   -1.8874    0.0000 C   0  0  0  0  0  0  0  0  0  0  0  0
   10.6605   -2.7147    0.0000 C   0  0  0  0  0  0  0  0  0  0  0  0
   11.3846   -3.1112    0.0000 C   0  0  0  0  0  0  0  0  0  0  0  0
   12.0915   -2.6816    0.0000 C   0  0  0  0  0  0  0  0  0  0  0  0
   12.0697   -1.8513    0.0000 C   0  0  0  0  0  0  0  0  0  0  0  0
   11.3451   -1.4585    0.0000 C   0  0  0  0  0  0  0  0  0  0  0  0
   12.8158   -3.0766    0.0000 C   0  0  0  0  0  0  0  0  0  0  0  0
   12.8359   -3.9013    0.0000 O   0  0  0  0  0  0  0  0  0  0  0  0
   13.5200   -2.6468    0.0000 O   0  0  0  0  0  0  0  0  0  0  0  0
   14.2444   -3.0418    0.0000 C   0  0  0  0  0  0  0  0  0  0  0  0
   14.3487   -3.8580    0.0000 C   0  0  0  0  0  0  0  0  0  0  0  0
   15.1596   -4.0099    0.0000 O   0  0  0  0  0  0  0  0  0  0  0  0
   14.9877   -2.6861    0.0000 C   0  0  0  0  0  0  0  0  0  0  0  0
   15.5507   -3.2861    0.0000 C   0  0  0  0  0  0  0  0  0  0  0  0
   16.2954   -2.9362    0.0000 C   0  0  0  0  0  0  0  0  0  0  0  0
   16.1927   -2.1198    0.0000 C   0  0  0  0  0  0  0  0  0  0  0  0
   15.3846   -1.9653    0.0000 O   0  0  0  0  0  0  0  0  0  0  0  0
   16.1450   -3.8544    0.0000 H   0  0  0  0  0  0  0  0  0  0  0  0
   14.3839   -2.1106    0.0000 H   0  0  0  0  0  0  0  0  0  0  0  0
   17.0182   -3.3341    0.0000 O   0  0  0  0  0  0  0  0  0  0  0  0
   11.4032   -3.9360    0.0000 O   0  0  0  0  0  0  0  0  0  0  0  0
   10.6982   -4.3646    0.0000 C   0  0  0  0  0  0  0  0  0  0  0  0
   10.7168   -5.1894    0.0000 C   0  0  0  0  0  0  0  0  0  0  0  0
    9.9745   -3.9682    0.0000 O   0  0  0  0  0  0  0  0  0  0  0  0
   17.7241   -2.9071    0.0000 C   0  0  0  0  0  0  0  0  0  0  0  0
   18.4469   -3.3049    0.0000 C   0  0  0  0  0  0  0  0  0  0  0  0
   17.7073   -2.0821    0.0000 O   0  0  0  0  0  0  0  0  0  0  0  0
   18.4611   -4.1304    0.0000 C   0  0  0  0  0  0  0  0  0  0  0  0
   19.1830   -4.5282    0.0000 C   0  0  0  0  0  0  0  0  0  0  0  0
   19.8899   -4.1011    0.0000 C   0  0  0  0  0  0  0  0  0  0  0  0
   19.8703   -3.2720    0.0000 C   0  0  0  0  0  0  0  0  0  0  0  0
   19.1479   -2.8780    0.0000 C   0  0  0  0  0  0  0  0  0  0  0  0
   20.6133   -4.4980    0.0000 O   0  0  0  0  0  0  0  0  0  0  0  0
 14 15  1  0
 15 16  1  0
 16 17  1  0
 17 13  1  0
 14 18  1  6
  7  9  1  0
 13 19  1  6
  4  5  1  0
 15 20  1  1
 10  9  1  6
  3 21  1  0
 10 11  1  0
 21 22  1  0
  2  3  1  0
 22 23  1  0
  5  6  2  0
 22 24  2  0
 11 12  1  0
 20 25  1  0
 12 14  1  0
 25 26  1  0
 13 10  1  0
 25 27  2  0
 13 14  1  0
 26 28  2  0
  6  1  1  0
 28 29  1  0
  1  2  2  0
 29 30  2  0
  4  7  1  0
 30 31  1  0
  3  4  2  0
 31 32  2  0
 32 26  1  0
  7  8  2  0
 30 33  1  0
M  END

> <chembl_id>
CHEMBL568344

> <chembl_pref_name>
None


$$$$

     RDKit          2D

 27 29  0  0  0  0  0  0  0  0999 V2000
   -4.4745  -10.6123    0.0000 C   0  0  0  0  0  0  0  0  0  0  0  0
   -4.4568  -11.4395    0.0000 C   0  0  0  0  0  0  0  0  0  0  0  0
   -3.7328  -11.8360    0.0000 C   0  0  0  0  0  0  0  0  0  0  0  0
   -3.0260  -11.4064    0.0000 C   0  0  0  0  0  0  0  0  0  0  0  0
   -3.0477  -10.5762    0.0000 C   0  0  0  0  0  0  0  0  0  0  0  0
   -3.7723  -10.1834    0.0000 C   0  0  0  0  0  0  0  0  0  0  0  0
   -2.3017  -11.8014    0.0000 C   0  0  0  0  0  0  0  0  0  0  0  0
   -2.2816  -12.6261    0.0000 O   0  0  0  0  0  0  0  0  0  0  0  0
   -1.5974  -11.3716    0.0000 O   0  0  0  0  0  0  0  0  0  0  0  0
   -0.8731  -11.7666    0.0000 C   0  0  0  0  0  0  0  0  0  0  0  0
   -0.7689  -12.5828    0.0000 C   0  0  0  0  0  0  0  0  0  0  0  0
    0.0420  -12.7346    0.0000 O   0  0  0  0  0  0  0  0  0  0  0  0
   -0.1298  -11.4109    0.0000 C   0  0  0  0  0  0  0  0  0  0  0  0
    0.4331  -12.0109    0.0000 C   0  0  0  0  0  0  0  0  0  0  0  0
    1.1777  -11.6610    0.0000 C   0  0  0  0  0  0  0  0  0  0  0  0
    1.0750  -10.8447    0.0000 C   0  0  0  0  0  0  0  0  0  0  0  0
    0.2669  -10.6902    0.0000 O   0  0  0  0  0  0  0  0  0  0  0  0
    1.0273  -12.5792    0.0000 H   0  0  0  0  0  0  0  0  0  0  0  0
   -0.7337  -10.8355    0.0000 H   0  0  0  0  0  0  0  0  0  0  0  0
    1.9004  -12.0589    0.0000 O   0  0  0  0  0  0  0  0  0  0  0  0
   -3.7142  -12.6608    0.0000 O   0  0  0  0  0  0  0  0  0  0  0  0
   -4.4192  -13.0893    0.0000 C   0  0  0  0  0  0  0  0  0  0  0  0
   -4.4006  -13.9141    0.0000 C   0  0  0  0  0  0  0  0  0  0  0  0
   -5.1428  -12.6930    0.0000 O   0  0  0  0  0  0  0  0  0  0  0  0
    2.6063  -11.6319    0.0000 C   0  0  0  0  0  0  0  0  0  0  0  0
    3.3291  -12.0297    0.0000 C   0  0  0  0  0  0  0  0  0  0  0  0
    2.5895  -10.8070    0.0000 O   0  0  0  0  0  0  0  0  0  0  0  0
 13 14  1  0
  6  1  1  0
  1  2  2  0
  4  7  1  0
  3  4  2  0
  7  8  2  0
 14 15  1  0
 15 16  1  0
 16 17  1  0
 17 13  1  0
 14 18  1  6
  7  9  1  0
 13 19  1  6
  4  5  1  0
 15 20  1  1
 10  9  1  6
  3 21  1  0
 10 11  1  0
 21 22  1  0
  2  3  1  0
 22 23  1  0
  5  6  2  0
 22 24  2  0
 11 12  1  0
 20 25  1  0
 12 14  1  0
 25 26  1  0
 13 10  1  0
 25 27  2  0
M  END

> <chembl_id>
CHEMBL568554

> <chembl_pref_name>
None


$$$$

     RDKit          2D

 32 35  0  0  0  0  0  0  0  0999 V2000
   -4.1295  -19.5615    0.0000 C   0  0  0  0  0  0  0  0  0  0  0  0
   -4.1118  -20.3889    0.0000 C   0  0  0  0  0  0  0  0  0  0  0  0
   -3.3876  -20.7854    0.0000 C   0  0  0  0  0  0  0  0  0  0  0  0
   -2.6805  -20.3558    0.0000 C   0  0  0  0  0  0  0  0  0  0  0  0
   -2.7023  -19.5254    0.0000 C   0  0  0  0  0  0  0  0  0  0  0  0
   -3.4270  -19.1327    0.0000 C   0  0  0  0  0  0  0  0  0  0  0  0
   -1.9562  -20.7508    0.0000 C   0  0  0  0  0  0  0  0  0  0  0  0
   -1.9361  -21.5758    0.0000 O   0  0  0  0  0  0  0  0  0  0  0  0
   -1.2518  -20.3210    0.0000 O   0  0  0  0  0  0  0  0  0  0  0  0
   -0.5273  -20.7160    0.0000 C   0  0  0  0  0  0  0  0  0  0  0  0
   -0.4230  -21.5325    0.0000 C   0  0  0  0  0  0  0  0  0  0  0  0
    0.3879  -21.6843    0.0000 O   0  0  0  0  0  0  0  0  0  0  0  0
    0.2160  -20.3604    0.0000 C   0  0  0  0  0  0  0  0  0  0  0  0
    0.7791  -20.9604    0.0000 C   0  0  0  0  0  0  0  0  0  0  0  0
    1.5237  -20.6105    0.0000 C   0  0  0  0  0  0  0  0  0  0  0  0
    1.4210  -19.7939    0.0000 C   0  0  0  0  0  0  0  0  0  0  0  0
    0.6130  -19.6395    0.0000 O   0  0  0  0  0  0  0  0  0  0  0  0
    1.3733  -21.5288    0.0000 H   0  0  0  0  0  0  0  0  0  0  0  0
   -0.3879  -19.7847    0.0000 H   0  0  0  0  0  0  0  0  0  0  0  0
    2.2467  -21.0083    0.0000 O   0  0  0  0  0  0  0  0  0  0  0  0
   -3.3690  -21.6104    0.0000 O   0  0  0  0  0  0  0  0  0  0  0  0
   -4.0742  -22.0389    0.0000 C   0  0  0  0  0  0  0  0  0  0  0  0
   -4.7977  -21.6426    0.0000 O   0  0  0  0  0  0  0  0  0  0  0  0
    2.9528  -20.5813    0.0000 C   0  0  0  0  0  0  0  0  0  0  0  0
    3.6755  -20.9791    0.0000 C   0  0  0  0  0  0  0  0  0  0  0  0
    2.9359  -19.7563    0.0000 O   0  0  0  0  0  0  0  0  0  0  0  0
    3.6897  -21.8048    0.0000 C   0  0  0  0  0  0  0  0  0  0  0  0
    4.4118  -22.2025    0.0000 C   0  0  0  0  0  0  0  0  0  0  0  0
    5.1187  -21.7754    0.0000 N   0  0  0  0  0  0  0  0  0  0  0  0
    5.0991  -20.9462    0.0000 C   0  0  0  0  0  0  0  0  0  0  0  0
    4.3767  -20.5522    0.0000 C   0  0  0  0  0  0  0  0  0  0  0  0
   -4.0556  -22.8639    0.0000 C   0  0  0  0  0  0  0  0  0  0  0  0
  7  8  2  0
 14 15  1  0
 15 16  1  0
 16 17  1  0
 17 13  1  0
 14 18  1  6
  7  9  1  0
 13 19  1  6
  4  5  1  0
 15 20  1  1
 10  9  1  6
  3 21  1  0
 10 11  1  0
 21 22  1  0
  2  3  1  0
 22 23  2  0
  5  6  2  0
 20 24  1  0
 11 12  1  0
 24 25  1  0
 12 14  1  0
 24 26  2  0
 13 10  1  0
 25 27  2  0
 13 14  1  0
 27 28  1  0
  6  1  1  0
 28 29  2  0
  1  2  2  0
 29 30  1  0
  4  7  1  0
 30 31  2  0
 31 25  1  0
  3  4  2  0
 22 32  1  0
M  END

> <chembl_id>
CHEMBL567917

> <chembl_pref_name>
None


$$$$

     RDKit          2D

 28 30  0  0  0  0  0  0  0  0999 V2000
    6.5213  -10.6456    0.0000 C   0  0  0  0  0  0  0  0  0  0  0  0
    6.5390  -11.4728    0.0000 C   0  0  0  0  0  0  0  0  0  0  0  0
    7.2630  -11.8693    0.0000 C   0  0  0  0  0  0  0  0  0  0  0  0
    7.9699  -11.4397    0.0000 C   0  0  0  0  0  0  0  0  0  0  0  0
    7.9481  -10.6095    0.0000 C   0  0  0  0  0  0  0  0  0  0  0  0
    7.2236  -10.2168    0.0000 C   0  0  0  0  0  0  0  0  0  0  0  0
    8.6942  -11.8347    0.0000 C   0  0  0  0  0  0  0  0  0  0  0  0
    8.7143  -12.6595    0.0000 O   0  0  0  0  0  0  0  0  0  0  0  0
    9.3984  -11.4049    0.0000 O   0  0  0  0  0  0  0  0  0  0  0  0
   10.1227  -11.7999    0.0000 C   0  0  0  0  0  0  0  0  0  0  0  0
   10.2270  -12.6162    0.0000 C   0  0  0  0  0  0  0  0  0  0  0  0
   11.0379  -12.7680    0.0000 O   0  0  0  0  0  0  0  0  0  0  0  0
   10.8660  -11.4443    0.0000 C   0  0  0  0  0  0  0  0  0  0  0  0
   11.4289  -12.0443    0.0000 C   0  0  0  0  0  0  0  0  0  0  0  0
   12.1735  -11.6944    0.0000 C   0  0  0  0  0  0  0  0  0  0  0  0
   12.0708  -10.8780    0.0000 C   0  0  0  0  0  0  0  0  0  0  0  0
   11.2628  -10.7236    0.0000 O   0  0  0  0  0  0  0  0  0  0  0  0
   12.0231  -12.6125    0.0000 H   0  0  0  0  0  0  0  0  0  0  0  0
   10.2621  -10.8688    0.0000 H   0  0  0  0  0  0  0  0  0  0  0  0
   12.8963  -12.0922    0.0000 O   0  0  0  0  0  0  0  0  0  0  0  0
    7.2816  -12.6941    0.0000 O   0  0  0  0  0  0  0  0  0  0  0  0
    6.5766  -13.1226    0.0000 C   0  0  0  0  0  0  0  0  0  0  0  0
    6.5952  -13.9474    0.0000 C   0  0  0  0  0  0  0  0  0  0  0  0
    5.8531  -12.7263    0.0000 O   0  0  0  0  0  0  0  0  0  0  0  0
   13.6022  -11.6652    0.0000 C   0  0  0  0  0  0  0  0  0  0  0  0
   14.3249  -12.0630    0.0000 C   0  0  0  0  0  0  0  0  0  0  0  0
   13.5853  -10.8404    0.0000 O   0  0  0  0  0  0  0  0  0  0  0  0
   15.0308  -11.6360    0.0000 C   0  0  0  0  0  0  0  0  0  0  0  0
  6  1  1  0
  1  2  2  0
  4  7  1  0
  3  4  2  0
  7  8  2  0
 14 15  1  0
 15 16  1  0
 16 17  1  0
 17 13  1  0
 14 18  1  6
  7  9  1  0
 13 19  1  6
  4  5  1  0
 15 20  1  1
 10  9  1  6
  3 21  1  0
 10 11  1  0
 21 22  1  0
  2  3  1  0
 22 23  1  0
  5  6  2  0
 22 24  2  0
 11 12  1  0
 20 25  1  0
 12 14  1  0
 25 26  1  0
 13 10  1  0
 25 27  2  0
 13 14  1  0
 26 28  1  0
M  END

> <chembl_id>
CHEMBL584911

> <chembl_pref_name>
None


$$$$

     RDKit          2D

 30 32  0  0  0  0  0  0  0  0999 V2000
   -4.2245  -14.6748    0.0000 C   0  0  0  0  0  0  0  0  0  0  0  0
   -4.2068  -15.5020    0.0000 C   0  0  0  0  0  0  0  0  0  0  0  0
   -3.4828  -15.8985    0.0000 C   0  0  0  0  0  0  0  0  0  0  0  0
   -2.7760  -15.4689    0.0000 C   0  0  0  0  0  0  0  0  0  0  0  0
   -2.7977  -14.6387    0.0000 C   0  0  0  0  0  0  0  0  0  0  0  0
   -3.5223  -14.2459    0.0000 C   0  0  0  0  0  0  0  0  0  0  0  0
   -2.0517  -15.8639    0.0000 C   0  0  0  0  0  0  0  0  0  0  0  0
   -2.0316  -16.6886    0.0000 O   0  0  0  0  0  0  0  0  0  0  0  0
   -1.3474  -15.4341    0.0000 O   0  0  0  0  0  0  0  0  0  0  0  0
   -0.6231  -15.8291    0.0000 C   0  0  0  0  0  0  0  0  0  0  0  0
   -0.5189  -16.6453    0.0000 C   0  0  0  0  0  0  0  0  0  0  0  0
    0.2920  -16.7971    0.0000 O   0  0  0  0  0  0  0  0  0  0  0  0
    0.1202  -15.4734    0.0000 C   0  0  0  0  0  0  0  0  0  0  0  0
    0.6831  -16.0734    0.0000 C   0  0  0  0  0  0  0  0  0  0  0  0
    1.4277  -15.7235    0.0000 C   0  0  0  0  0  0  0  0  0  0  0  0
    1.3250  -14.9072    0.0000 C   0  0  0  0  0  0  0  0  0  0  0  0
    0.5169  -14.7527    0.0000 O   0  0  0  0  0  0  0  0  0  0  0  0
    1.2773  -16.6417    0.0000 H   0  0  0  0  0  0  0  0  0  0  0  0
   -0.4837  -14.8980    0.0000 H   0  0  0  0  0  0  0  0  0  0  0  0
    2.1504  -16.1214    0.0000 O   0  0  0  0  0  0  0  0  0  0  0  0
   -3.4642  -16.7233    0.0000 O   0  0  0  0  0  0  0  0  0  0  0  0
   -4.1692  -17.1518    0.0000 C   0  0  0  0  0  0  0  0  0  0  0  0
   -4.1506  -17.9766    0.0000 C   0  0  0  0  0  0  0  0  0  0  0  0
   -4.8928  -16.7555    0.0000 O   0  0  0  0  0  0  0  0  0  0  0  0
    2.8563  -15.6944    0.0000 C   0  0  0  0  0  0  0  0  0  0  0  0
    3.5791  -16.0922    0.0000 C   0  0  0  0  0  0  0  0  0  0  0  0
    2.8395  -14.8695    0.0000 O   0  0  0  0  0  0  0  0  0  0  0  0
    4.2850  -15.6652    0.0000 C   0  0  0  0  0  0  0  0  0  0  0  0
    5.0077  -16.0630    0.0000 C   0  0  0  0  0  0  0  0  0  0  0  0
    5.7136  -15.6360    0.0000 C   0  0  0  0  0  0  0  0  0  0  0  0
  4  7  1  0
  3  4  2  0
  7  8  2  0
 14 15  1  0
 15 16  1  0
 16 17  1  0
 17 13  1  0
 14 18  1  6
  7  9  1  0
 13 19  1  6
  4  5  1  0
 15 20  1  1
 10  9  1  6
  3 21  1  0
 10 11  1  0
 21 22  1  0
  2  3  1  0
 22 23  1  0
  5  6  2  0
 22 24  2  0
 11 12  1  0
 20 25  1  0
 12 14  1  0
 25 26  1  0
 13 10  1  0
 25 27  2  0
 13 14  1  0
 26 28  1  0
  6  1  1  0
 28 29  1  0
  1  2  2  0
 29 30  1  0
M  END

> <chembl_id>
CHEMBL585850

> <chembl_pref_name>
None


$$$$

     RDKit          2D

 29 32  0  0  0  0  0  0  0  0999 V2000
    7.6473  -14.9767    0.0000 C   0  0  0  0  0  0  0  0  0  0  0  0
    7.6650  -15.8041    0.0000 C   0  0  0  0  0  0  0  0  0  0  0  0
    8.3891  -16.2006    0.0000 C   0  0  0  0  0  0  0  0  0  0  0  0
    9.0961  -15.7710    0.0000 C   0  0  0  0  0  0  0  0  0  0  0  0
    9.0743  -14.9406    0.0000 C   0  0  0  0  0  0  0  0  0  0  0  0
    8.3497  -14.5478    0.0000 C   0  0  0  0  0  0  0  0  0  0  0  0
    9.8205  -16.1660    0.0000 C   0  0  0  0  0  0  0  0  0  0  0  0
    9.8406  -16.9908    0.0000 O   0  0  0  0  0  0  0  0  0  0  0  0
   10.5248  -15.7362    0.0000 O   0  0  0  0  0  0  0  0  0  0  0  0
   11.2492  -16.1312    0.0000 C   0  0  0  0  0  0  0  0  0  0  0  0
   11.3535  -16.9475    0.0000 C   0  0  0  0  0  0  0  0  0  0  0  0
   12.1645  -17.0993    0.0000 O   0  0  0  0  0  0  0  0  0  0  0  0
   11.9925  -15.7755    0.0000 C   0  0  0  0  0  0  0  0  0  0  0  0
   12.5555  -16.3755    0.0000 C   0  0  0  0  0  0  0  0  0  0  0  0
   13.3002  -16.0256    0.0000 C   0  0  0  0  0  0  0  0  0  0  0  0
   13.1975  -15.2091    0.0000 C   0  0  0  0  0  0  0  0  0  0  0  0
   12.3894  -15.0546    0.0000 O   0  0  0  0  0  0  0  0  0  0  0  0
   13.1498  -16.9439    0.0000 H   0  0  0  0  0  0  0  0  0  0  0  0
   11.3886  -15.1999    0.0000 H   0  0  0  0  0  0  0  0  0  0  0  0
   14.0231  -16.4235    0.0000 O   0  0  0  0  0  0  0  0  0  0  0  0
    8.4077  -17.0255    0.0000 O   0  0  0  0  0  0  0  0  0  0  0  0
    7.7026  -17.4541    0.0000 C   0  0  0  0  0  0  0  0  0  0  0  0
    7.7212  -18.2789    0.0000 C   0  0  0  0  0  0  0  0  0  0  0  0
    6.9790  -17.0577    0.0000 O   0  0  0  0  0  0  0  0  0  0  0  0
   14.7291  -15.9965    0.0000 C   0  0  0  0  0  0  0  0  0  0  0  0
   15.4519  -16.3943    0.0000 C   0  0  0  0  0  0  0  0  0  0  0  0
   14.7122  -15.1714    0.0000 O   0  0  0  0  0  0  0  0  0  0  0  0
   15.8772  -17.0961    0.0000 C   0  0  0  0  0  0  0  0  0  0  0  0
   16.2750  -16.3733    0.0000 C   0  0  0  0  0  0  0  0  0  0  0  0
  1  2  2  0
  4  7  1  0
  3  4  2  0
  7  8  2  0
 14 15  1  0
 15 16  1  0
 16 17  1  0
 17 13  1  0
 14 18  1  6
  7  9  1  0
 13 19  1  6
  4  5  1  0
 15 20  1  1
 10  9  1  6
  3 21  1  0
 10 11  1  0
 21 22  1  0
  2  3  1  0
 22 23  1  0
  5  6  2  0
 22 24  2  0
 11 12  1  0
 20 25  1  0
 12 14  1  0
 25 26  1  0
 13 10  1  0
 25 27  2  0
 28 26  1  0
 29 28  1  0
 26 29  1  0
 13 14  1  0
  6  1  1  0
M  END

> <chembl_id>
CHEMBL565421

> <chembl_pref_name>
None


$$$$

     RDKit          2D

 32 35  0  0  0  0  0  0  0  0999 V2000
   -4.1620  -18.3123    0.0000 C   0  0  0  0  0  0  0  0  0  0  0  0
   -4.1443  -19.1395    0.0000 C   0  0  0  0  0  0  0  0  0  0  0  0
   -3.4203  -19.5360    0.0000 C   0  0  0  0  0  0  0  0  0  0  0  0
   -2.7135  -19.1064    0.0000 C   0  0  0  0  0  0  0  0  0  0  0  0
   -2.7352  -18.2762    0.0000 C   0  0  0  0  0  0  0  0  0  0  0  0
   -3.4598  -17.8834    0.0000 C   0  0  0  0  0  0  0  0  0  0  0  0
   -1.9892  -19.5014    0.0000 C   0  0  0  0  0  0  0  0  0  0  0  0
   -1.9691  -20.3261    0.0000 O   0  0  0  0  0  0  0  0  0  0  0  0
   -1.2849  -19.0716    0.0000 O   0  0  0  0  0  0  0  0  0  0  0  0
   -0.5606  -19.4666    0.0000 C   0  0  0  0  0  0  0  0  0  0  0  0
   -0.4564  -20.2828    0.0000 C   0  0  0  0  0  0  0  0  0  0  0  0
    0.3545  -20.4346    0.0000 O   0  0  0  0  0  0  0  0  0  0  0  0
    0.1827  -19.1109    0.0000 C   0  0  0  0  0  0  0  0  0  0  0  0
    0.7456  -19.7109    0.0000 C   0  0  0  0  0  0  0  0  0  0  0  0
    1.4902  -19.3610    0.0000 C   0  0  0  0  0  0  0  0  0  0  0  0
    1.3875  -18.5447    0.0000 C   0  0  0  0  0  0  0  0  0  0  0  0
    0.5794  -18.3902    0.0000 O   0  0  0  0  0  0  0  0  0  0  0  0
    1.3398  -20.2792    0.0000 H   0  0  0  0  0  0  0  0  0  0  0  0
   -0.4212  -18.5355    0.0000 H   0  0  0  0  0  0  0  0  0  0  0  0
    2.2129  -19.7589    0.0000 O   0  0  0  0  0  0  0  0  0  0  0  0
   -3.4017  -20.3608    0.0000 O   0  0  0  0  0  0  0  0  0  0  0  0
   -4.1067  -20.7893    0.0000 C   0  0  0  0  0  0  0  0  0  0  0  0
   -4.8303  -20.3930    0.0000 O   0  0  0  0  0  0  0  0  0  0  0  0
    2.9188  -19.3319    0.0000 C   0  0  0  0  0  0  0  0  0  0  0  0
    3.6416  -19.7297    0.0000 C   0  0  0  0  0  0  0  0  0  0  0  0
    2.9020  -18.5070    0.0000 O   0  0  0  0  0  0  0  0  0  0  0  0
    3.6557  -20.5551    0.0000 C   0  0  0  0  0  0  0  0  0  0  0  0
    4.3776  -20.9529    0.0000 C   0  0  0  0  0  0  0  0  0  0  0  0
    5.0845  -20.5258    0.0000 C   0  0  0  0  0  0  0  0  0  0  0  0
    5.0649  -19.6968    0.0000 C   0  0  0  0  0  0  0  0  0  0  0  0
    4.3425  -19.3028    0.0000 C   0  0  0  0  0  0  0  0  0  0  0  0
   -4.0881  -21.6141    0.0000 C   0  0  0  0  0  0  0  0  0  0  0  0
  7  8  2  0
 14 15  1  0
 15 16  1  0
 16 17  1  0
 17 13  1  0
 14 18  1  6
  7  9  1  0
 13 19  1  6
  4  5  1  0
 15 20  1  1
 10  9  1  6
  3 21  1  0
 10 11  1  0
 21 22  1  0
  2  3  1  0
 22 23  2  0
  5  6  2  0
 20 24  1  0
 11 12  1  0
 24 25  1  0
 12 14  1  0
 24 26  2  0
 13 10  1  0
 25 27  2  0
 13 14  1  0
 27 28  1  0
  6  1  1  0
 28 29  2  0
  1  2  2  0
 29 30  1  0
  4  7  1  0
 30 31  2  0
 31 25  1  0
  3  4  2  0
 22 32  1  0
M  END

> <chembl_id>
CHEMBL567100

> <chembl_pref_name>
None


$$$$

     RDKit          2D

 33 36  0  0  0  0  0  0  0  0999 V2000
    6.8967  -18.8760    0.0000 C   0  0  0  0  0  0  0  0  0  0  0  0
    6.9144  -19.7032    0.0000 C   0  0  0  0  0  0  0  0  0  0  0  0
    7.6385  -20.0998    0.0000 C   0  0  0  0  0  0  0  0  0  0  0  0
    8.3454  -19.6701    0.0000 C   0  0  0  0  0  0  0  0  0  0  0  0
    8.3236  -18.8399    0.0000 C   0  0  0  0  0  0  0  0  0  0  0  0
    7.5991  -18.4471    0.0000 C   0  0  0  0  0  0  0  0  0  0  0  0
    9.0698  -20.0652    0.0000 C   0  0  0  0  0  0  0  0  0  0  0  0
    9.0899  -20.8899    0.0000 O   0  0  0  0  0  0  0  0  0  0  0  0
    9.7740  -19.6353    0.0000 O   0  0  0  0  0  0  0  0  0  0  0  0
   10.4984  -20.0303    0.0000 C   0  0  0  0  0  0  0  0  0  0  0  0
   10.6027  -20.8466    0.0000 C   0  0  0  0  0  0  0  0  0  0  0  0
   11.4136  -20.9984    0.0000 O   0  0  0  0  0  0  0  0  0  0  0  0
   11.2417  -19.6746    0.0000 C   0  0  0  0  0  0  0  0  0  0  0  0
   11.8046  -20.2747    0.0000 C   0  0  0  0  0  0  0  0  0  0  0  0
   12.5493  -19.9247    0.0000 C   0  0  0  0  0  0  0  0  0  0  0  0
   12.4466  -19.1084    0.0000 C   0  0  0  0  0  0  0  0  0  0  0  0
   11.6385  -18.9539    0.0000 O   0  0  0  0  0  0  0  0  0  0  0  0
   12.3989  -20.8430    0.0000 H   0  0  0  0  0  0  0  0  0  0  0  0
   10.6378  -19.0992    0.0000 H   0  0  0  0  0  0  0  0  0  0  0  0
   13.2721  -20.3227    0.0000 O   0  0  0  0  0  0  0  0  0  0  0  0
    7.6571  -20.9246    0.0000 O   0  0  0  0  0  0  0  0  0  0  0  0
    6.9520  -21.3531    0.0000 C   0  0  0  0  0  0  0  0  0  0  0  0
    6.2285  -20.9568    0.0000 O   0  0  0  0  0  0  0  0  0  0  0  0
   13.9781  -19.8956    0.0000 C   0  0  0  0  0  0  0  0  0  0  0  0
   14.7008  -20.2935    0.0000 C   0  0  0  0  0  0  0  0  0  0  0  0
   13.9612  -19.0707    0.0000 O   0  0  0  0  0  0  0  0  0  0  0  0
   14.7150  -21.1189    0.0000 C   0  0  0  0  0  0  0  0  0  0  0  0
   15.4370  -21.5167    0.0000 C   0  0  0  0  0  0  0  0  0  0  0  0
   16.1439  -21.0896    0.0000 C   0  0  0  0  0  0  0  0  0  0  0  0
   16.1243  -20.2606    0.0000 C   0  0  0  0  0  0  0  0  0  0  0  0
   15.4019  -19.8665    0.0000 C   0  0  0  0  0  0  0  0  0  0  0  0
    6.9706  -22.1780    0.0000 C   0  0  0  0  0  0  0  0  0  0  0  0
   15.3822  -19.0417    0.0000 C   0  0  0  0  0  0  0  0  0  0  0  0
 14 15  1  0
 15 16  1  0
 16 17  1  0
 17 13  1  0
 14 18  1  6
  7  9  1  0
 13 19  1  6
  4  5  1  0
 15 20  1  1
 10  9  1  6
  3 21  1  0
 10 11  1  0
 21 22  1  0
  2  3  1  0
 22 23  2  0
  5  6  2  0
 20 24  1  0
 11 12  1  0
 24 25  1  0
 12 14  1  0
 24 26  2  0
 13 10  1  0
 25 27  2  0
 13 14  1  0
 27 28  1  0
  6  1  1  0
 28 29  2  0
  1  2  2  0
 29 30  1  0
  4  7  1  0
 30 31  2  0
 31 25  1  0
  3  4  2  0
 22 32  1  0
  7  8  2  0
 31 33  1  0
M  END

> <chembl_id>
CHEMBL566459

> <chembl_pref_name>
None


$$$$

     RDKit          2D

 33 36  0  0  0  0  0  0  0  0999 V2000
   -4.9204  -23.0331    0.0000 C   0  0  0  0  0  0  0  0  0  0  0  0
   -4.9027  -23.8603    0.0000 C   0  0  0  0  0  0  0  0  0  0  0  0
   -4.1786  -24.2568    0.0000 C   0  0  0  0  0  0  0  0  0  0  0  0
   -3.4718  -23.8272    0.0000 C   0  0  0  0  0  0  0  0  0  0  0  0
   -3.4936  -22.9970    0.0000 C   0  0  0  0  0  0  0  0  0  0  0  0
   -4.2181  -22.6043    0.0000 C   0  0  0  0  0  0  0  0  0  0  0  0
   -2.7475  -24.2222    0.0000 C   0  0  0  0  0  0  0  0  0  0  0  0
   -2.7274  -25.0470    0.0000 O   0  0  0  0  0  0  0  0  0  0  0  0
   -2.0433  -23.7924    0.0000 O   0  0  0  0  0  0  0  0  0  0  0  0
   -1.3190  -24.1874    0.0000 C   0  0  0  0  0  0  0  0  0  0  0  0
   -1.2147  -25.0037    0.0000 C   0  0  0  0  0  0  0  0  0  0  0  0
   -0.4038  -25.1555    0.0000 O   0  0  0  0  0  0  0  0  0  0  0  0
   -0.5757  -23.8318    0.0000 C   0  0  0  0  0  0  0  0  0  0  0  0
   -0.0128  -24.4318    0.0000 C   0  0  0  0  0  0  0  0  0  0  0  0
    0.7319  -24.0819    0.0000 C   0  0  0  0  0  0  0  0  0  0  0  0
    0.6292  -23.2655    0.0000 C   0  0  0  0  0  0  0  0  0  0  0  0
   -0.1789  -23.1111    0.0000 O   0  0  0  0  0  0  0  0  0  0  0  0
    0.5815  -25.0000    0.0000 H   0  0  0  0  0  0  0  0  0  0  0  0
   -1.1795  -23.2563    0.0000 H   0  0  0  0  0  0  0  0  0  0  0  0
    1.4546  -24.4797    0.0000 O   0  0  0  0  0  0  0  0  0  0  0  0
   -4.1600  -25.0816    0.0000 O   0  0  0  0  0  0  0  0  0  0  0  0
   -4.8650  -25.5101    0.0000 C   0  0  0  0  0  0  0  0  0  0  0  0
   -5.5886  -25.1138    0.0000 O   0  0  0  0  0  0  0  0  0  0  0  0
    2.1605  -24.0527    0.0000 C   0  0  0  0  0  0  0  0  0  0  0  0
    2.8832  -24.4505    0.0000 C   0  0  0  0  0  0  0  0  0  0  0  0
    2.1437  -23.2279    0.0000 O   0  0  0  0  0  0  0  0  0  0  0  0
    2.8974  -25.2760    0.0000 C   0  0  0  0  0  0  0  0  0  0  0  0
    3.6193  -25.6737    0.0000 C   0  0  0  0  0  0  0  0  0  0  0  0
    4.3262  -25.2466    0.0000 C   0  0  0  0  0  0  0  0  0  0  0  0
    4.3066  -24.4176    0.0000 C   0  0  0  0  0  0  0  0  0  0  0  0
    3.5842  -24.0236    0.0000 C   0  0  0  0  0  0  0  0  0  0  0  0
   -4.8464  -26.3349    0.0000 C   0  0  0  0  0  0  0  0  0  0  0  0
    5.0110  -23.9881    0.0000 C   0  0  0  0  0  0  0  0  0  0  0  0
 14 15  1  0
 15 16  1  0
 16 17  1  0
 17 13  1  0
 14 18  1  6
  7  9  1  0
 13 19  1  6
  4  5  1  0
 15 20  1  1
 10  9  1  6
  3 21  1  0
 10 11  1  0
 21 22  1  0
  2  3  1  0
 22 23  2  0
  5  6  2  0
 20 24  1  0
 11 12  1  0
 24 25  1  0
 12 14  1  0
 24 26  2  0
 13 10  1  0
 25 27  2  0
 13 14  1  0
 27 28  1  0
  6  1  1  0
 28 29  2  0
  1  2  2  0
 29 30  1  0
  4  7  1  0
 30 31  2  0
 31 25  1  0
  3  4  2  0
 22 32  1  0
  7  8  2  0
 30 33  1  0
M  END

> <chembl_id>
CHEMBL585296

> <chembl_pref_name>
None


$$$$

     RDKit          2D

 33 36  0  0  0  0  0  0  0  0999 V2000
    6.0130  -23.4206    0.0000 C   0  0  0  0  0  0  0  0  0  0  0  0
    6.0307  -24.2478    0.0000 C   0  0  0  0  0  0  0  0  0  0  0  0
    6.7547  -24.6443    0.0000 C   0  0  0  0  0  0  0  0  0  0  0  0
    7.4615  -24.2147    0.0000 C   0  0  0  0  0  0  0  0  0  0  0  0
    7.4398  -23.3845    0.0000 C   0  0  0  0  0  0  0  0  0  0  0  0
    6.7152  -22.9918    0.0000 C   0  0  0  0  0  0  0  0  0  0  0  0
    8.1858  -24.6097    0.0000 C   0  0  0  0  0  0  0  0  0  0  0  0
    8.2059  -25.4345    0.0000 O   0  0  0  0  0  0  0  0  0  0  0  0
    8.8901  -24.1799    0.0000 O   0  0  0  0  0  0  0  0  0  0  0  0
    9.6144  -24.5749    0.0000 C   0  0  0  0  0  0  0  0  0  0  0  0
    9.7186  -25.3912    0.0000 C   0  0  0  0  0  0  0  0  0  0  0  0
   10.5295  -25.5430    0.0000 O   0  0  0  0  0  0  0  0  0  0  0  0
   10.3577  -24.2193    0.0000 C   0  0  0  0  0  0  0  0  0  0  0  0
   10.9206  -24.8193    0.0000 C   0  0  0  0  0  0  0  0  0  0  0  0
   11.6652  -24.4694    0.0000 C   0  0  0  0  0  0  0  0  0  0  0  0
   11.5625  -23.6530    0.0000 C   0  0  0  0  0  0  0  0  0  0  0  0
   10.7544  -23.4986    0.0000 O   0  0  0  0  0  0  0  0  0  0  0  0
   11.5148  -25.3875    0.0000 H   0  0  0  0  0  0  0  0  0  0  0  0
    9.7538  -23.6438    0.0000 H   0  0  0  0  0  0  0  0  0  0  0  0
   12.3879  -24.8672    0.0000 O   0  0  0  0  0  0  0  0  0  0  0  0
    6.7733  -25.4691    0.0000 O   0  0  0  0  0  0  0  0  0  0  0  0
    6.0683  -25.8976    0.0000 C   0  0  0  0  0  0  0  0  0  0  0  0
    5.3447  -25.5013    0.0000 O   0  0  0  0  0  0  0  0  0  0  0  0
   13.0938  -24.4402    0.0000 C   0  0  0  0  0  0  0  0  0  0  0  0
   13.8166  -24.8380    0.0000 C   0  0  0  0  0  0  0  0  0  0  0  0
   13.0770  -23.6154    0.0000 O   0  0  0  0  0  0  0  0  0  0  0  0
   13.8307  -25.6635    0.0000 C   0  0  0  0  0  0  0  0  0  0  0  0
   14.5526  -26.0612    0.0000 C   0  0  0  0  0  0  0  0  0  0  0  0
   15.2595  -25.6341    0.0000 C   0  0  0  0  0  0  0  0  0  0  0  0
   15.2399  -24.8051    0.0000 C   0  0  0  0  0  0  0  0  0  0  0  0
   14.5175  -24.4111    0.0000 C   0  0  0  0  0  0  0  0  0  0  0  0
    6.0869  -26.7224    0.0000 C   0  0  0  0  0  0  0  0  0  0  0  0
   15.9828  -26.0310    0.0000 C   0  0  0  0  0  0  0  0  0  0  0  0
 14 15  1  0
 15 16  1  0
 16 17  1  0
 17 13  1  0
 14 18  1  6
  7  9  1  0
 13 19  1  6
  4  5  1  0
 15 20  1  1
 10  9  1  6
  3 21  1  0
 10 11  1  0
 21 22  1  0
  2  3  1  0
 22 23  2  0
  5  6  2  0
 20 24  1  0
 11 12  1  0
 24 25  1  0
 12 14  1  0
 24 26  2  0
 13 10  1  0
 25 27  2  0
 13 14  1  0
 27 28  1  0
  6  1  1  0
 28 29  2  0
  1  2  2  0
 29 30  1  0
  4  7  1  0
 30 31  2  0
 31 25  1  0
  3  4  2  0
 22 32  1  0
  7  8  2  0
 29 33  1  0
M  END

> <chembl_id>
CHEMBL568130

> <chembl_pref_name>
None


$$$$

     RDKit          2D

 22 22  0  0  0  0  0  0  0  0999 V2000
    3.3499   -6.6819    0.0000 C   0  0  0  0  0  0  0  0  0  0  0  0
    3.3487   -7.5015    0.0000 C   0  0  0  0  0  0  0  0  0  0  0  0
    4.0568   -7.9104    0.0000 C   0  0  0  0  0  0  0  0  0  0  0  0
    4.7665   -7.5010    0.0000 C   0  0  0  0  0  0  0  0  0  0  0  0
    4.7636   -6.6783    0.0000 C   0  0  0  0  0  0  0  0  0  0  0  0
    4.0550   -6.2731    0.0000 C   0  0  0  0  0  0  0  0  0  0  0  0
    5.4698   -6.2671    0.0000 O   0  0  0  0  0  0  0  0  0  0  0  0
    6.1790   -6.6730    0.0000 C   0  0  0  0  0  0  0  0  0  0  0  0
    6.8852   -6.2618    0.0000 C   0  0  0  0  0  0  0  0  0  0  0  0
    6.1821   -7.4902    0.0000 O   0  0  0  0  0  0  0  0  0  0  0  0
    4.0526   -5.4559    0.0000 C   0  0  0  0  0  0  0  0  0  0  0  0
    4.7590   -5.0452    0.0000 O   0  0  0  0  0  0  0  0  0  0  0  0
    3.3436   -5.0494    0.0000 O   0  0  0  0  0  0  0  0  0  0  0  0
    3.3412   -4.2322    0.0000 C   0  0  0  0  0  0  0  0  0  0  0  0
    2.6323   -3.8257    0.0000 O   0  0  0  0  0  0  0  0  0  0  0  0
    2.6298   -3.0086    0.0000 N   0  0  0  0  0  0  0  0  0  0  0  0
    1.9209   -2.6021    0.0000 N   0  0  0  0  0  0  0  0  0  0  0  0
    1.9150   -1.7830    0.0000 N   0  0  0  0  0  0  0  0  0  0  0  0
    2.6198   -1.3693    0.0000 C   0  0  0  0  0  0  0  0  0  0  0  0
    2.6139   -0.5521    0.0000 C   0  0  0  0  0  0  0  0  0  0  0  0
    3.3304   -1.7728    0.0000 C   0  0  0  0  0  0  0  0  0  0  0  0
    1.2093   -3.0046    0.0000 O   0  0  0  0  0  0  0  0  0  0  0  0
  1  2  2  0
  2  3  1  0
  3  4  2  0
  4  5  1  0
  5  6  2  0
  6  1  1  0
  5  7  1  0
  7  8  1  0
  8  9  1  0
  8 10  2  0
  6 11  1  0
 11 12  2  0
 11 13  1  0
 13 14  1  0
 14 15  1  0
 15 16  1  0
 16 17  2  0
 17 18  1  0
 18 19  1  0
 19 20  1  0
 19 21  1  0
 17 22  1  0
M  CHG  2  17   1  22  -1
M  END

> <chembl_id>
CHEMBL2431796

> <chembl_pref_name>
None


$$$$

     RDKit          2D

 23 24  0  0  0  0  0  0  0  0999 V2000
    1.2990   -0.7500    0.0000 C   0  0  0  0  0  0  0  0  0  0  0  0
    1.2990    0.7500    0.0000 C   0  0  0  0  0  0  0  0  0  0  0  0
    0.0000    1.5000    0.0000 C   0  0  0  0  0  0  0  0  0  0  0  0
   -1.2990    0.7500    0.0000 C   0  0  0  0  0  0  0  0  0  0  0  0
   -1.2990   -0.7500    0.0000 C   0  0  0  0  0  0  0  0  0  0  0  0
    0.0000   -1.5000    0.0000 C   0  0  0  0  0  0  0  0  0  0  0  0
   -2.5973    1.5031    0.0000 C   0  0  0  0  0  0  0  0  0  0  0  0
   -2.5956    2.7031    0.0000 O   0  0  0  0  0  0  0  0  0  0  0  0
   -3.6375    0.9049    0.0000 O   0  0  0  0  0  0  0  0  0  0  0  0
   -2.5972   -1.5031    0.0000 C   0  0  0  0  0  0  0  0  0  0  0  0
   -2.5951   -3.0039    0.0000 O   0  0  0  0  0  0  0  0  0  0  0  0
   -3.6375   -0.9049    0.0000 O   0  0  0  0  0  0  0  0  0  0  0  0
   -3.8933   -3.7570    0.0000 C   0  0  0  0  0  0  0  0  0  0  0  0
   -3.8934   -5.2570    0.0000 C   0  0  0  0  0  0  0  0  0  0  0  0
   -5.1924   -6.0071    0.0000 C   0  0  0  0  0  0  0  0  0  0  0  0
   -6.4914   -5.2571    0.0000 C   0  0  0  0  0  0  0  0  0  0  0  0
   -6.4915   -3.7571    0.0000 C   0  0  0  0  0  0  0  0  0  0  0  0
   -5.1925   -3.0071    0.0000 C   0  0  0  0  0  0  0  0  0  0  0  0
   -5.1954   -7.5079    0.0000 C   0  0  0  0  0  0  0  0  0  0  0  0
   -6.4962   -8.2565    0.0000 O   0  0  0  0  0  0  0  0  0  0  0  0
   -6.4993   -9.7573    0.0000 N   0  0  0  0  0  0  0  0  0  0  0  0
   -7.5393  -10.3559    0.0000 O   0  0  0  0  0  0  0  0  0  0  0  0
   -5.4611  -10.3591    0.0000 O   0  0  0  0  0  0  0  0  0  0  0  0
  1  2  2  0
  2  3  1  0
  3  4  2  0
  4  5  1  0
  5  6  2  0
  6  1  1  0
  4  7  1  0
  7  8  2  0
  7  9  1  0
  5 10  1  0
 10 11  1  0
 10 12  2  0
 11 13  1  0
 13 14  2  0
 14 15  1  0
 15 16  2  0
 16 17  1  0
 17 18  2  0
 18 13  1  0
 15 19  1  0
 19 20  1  0
 20 21  1  0
 21 22  2  0
 21 23  1  0
M  CHG  2  21   1  23  -1
M  END

> <chembl_id>
CHEMBL3601361

> <chembl_pref_name>
None


$$$$

     RDKit          2D

 34 37  0  0  0  0  0  0  0  0999 V2000
   -4.1915    2.1961    0.0000 C   0  0  0  0  0  0  0  0  0  0  0  0
   -4.1738    1.3689    0.0000 C   0  0  0  0  0  0  0  0  0  0  0  0
   -3.4497    0.9725    0.0000 C   0  0  0  0  0  0  0  0  0  0  0  0
   -2.7428    1.4020    0.0000 C   0  0  0  0  0  0  0  0  0  0  0  0
   -2.7646    2.2323    0.0000 C   0  0  0  0  0  0  0  0  0  0  0  0
   -3.4891    2.6251    0.0000 C   0  0  0  0  0  0  0  0  0  0  0  0
   -2.0184    1.0070    0.0000 C   0  0  0  0  0  0  0  0  0  0  0  0
   -1.9983    0.1822    0.0000 O   0  0  0  0  0  0  0  0  0  0  0  0
   -1.3142    1.4368    0.0000 O   0  0  0  0  0  0  0  0  0  0  0  0
   -0.5898    1.0419    0.0000 C   0  0  0  0  0  0  0  0  0  0  0  0
   -0.4855    0.2255    0.0000 C   0  0  0  0  0  0  0  0  0  0  0  0
    0.3254    0.0737    0.0000 O   0  0  0  0  0  0  0  0  0  0  0  0
    0.1535    1.3975    0.0000 C   0  0  0  0  0  0  0  0  0  0  0  0
    0.7164    0.7974    0.0000 C   0  0  0  0  0  0  0  0  0  0  0  0
    1.4611    1.1474    0.0000 C   0  0  0  0  0  0  0  0  0  0  0  0
    1.3584    1.9638    0.0000 C   0  0  0  0  0  0  0  0  0  0  0  0
    0.5503    2.1182    0.0000 O   0  0  0  0  0  0  0  0  0  0  0  0
    1.3107    0.2292    0.0000 H   0  0  0  0  0  0  0  0  0  0  0  0
   -0.4504    1.9729    0.0000 H   0  0  0  0  0  0  0  0  0  0  0  0
    2.1839    0.7495    0.0000 O   0  0  0  0  0  0  0  0  0  0  0  0
   -3.4311    0.1476    0.0000 O   0  0  0  0  0  0  0  0  0  0  0  0
   -4.1362   -0.2809    0.0000 C   0  0  0  0  0  0  0  0  0  0  0  0
   -4.8597    0.1154    0.0000 O   0  0  0  0  0  0  0  0  0  0  0  0
    2.8899    1.1766    0.0000 C   0  0  0  0  0  0  0  0  0  0  0  0
    3.6126    0.7787    0.0000 C   0  0  0  0  0  0  0  0  0  0  0  0
    2.8730    2.0014    0.0000 O   0  0  0  0  0  0  0  0  0  0  0  0
    3.6268   -0.0468    0.0000 C   0  0  0  0  0  0  0  0  0  0  0  0
    4.3488   -0.4446    0.0000 C   0  0  0  0  0  0  0  0  0  0  0  0
    5.0557   -0.0175    0.0000 C   0  0  0  0  0  0  0  0  0  0  0  0
    5.0361    0.8117    0.0000 C   0  0  0  0  0  0  0  0  0  0  0  0
    4.3137    1.2057    0.0000 C   0  0  0  0  0  0  0  0  0  0  0  0
   -4.1176   -1.1058    0.0000 C   0  0  0  0  0  0  0  0  0  0  0  0
    4.2940    2.0304    0.0000 O   0  0  0  0  0  0  0  0  0  0  0  0
    4.9984    2.4600    0.0000 C   0  0  0  0  0  0  0  0  0  0  0  0
 15 16  1  0
 16 17  1  0
 17 13  1  0
 14 18  1  6
  7  9  1  0
 13 19  1  6
  4  5  1  0
 15 20  1  1
 10  9  1  6
  3 21  1  0
 10 11  1  0
 21 22  1  0
  2  3  1  0
 22 23  2  0
  5  6  2  0
 20 24  1  0
 11 12  1  0
 24 25  1  0
 12 14  1  0
 24 26  2  0
 13 10  1  0
 25 27  2  0
 13 14  1  0
 27 28  1  0
  6  1  1  0
 28 29  2  0
  1  2  2  0
 29 30  1  0
  4  7  1  0
 30 31  2  0
 31 25  1  0
  3  4  2  0
 22 32  1  0
  7  8  2  0
 31 33  1  0
 14 15  1  0
 33 34  1  0
M  END

> <chembl_id>
CHEMBL568367

> <chembl_pref_name>
None


$$$$

     RDKit          2D

 32 34  0  0  0  0  0  0  0  0999 V2000
   -4.9079  -13.4415    0.0000 C   0  0  0  0  0  0  0  0  0  0  0  0
   -4.8902  -14.2687    0.0000 C   0  0  0  0  0  0  0  0  0  0  0  0
   -4.1661  -14.6651    0.0000 C   0  0  0  0  0  0  0  0  0  0  0  0
   -3.4593  -14.2356    0.0000 C   0  0  0  0  0  0  0  0  0  0  0  0
   -3.4811  -13.4053    0.0000 C   0  0  0  0  0  0  0  0  0  0  0  0
   -4.2056  -13.0126    0.0000 C   0  0  0  0  0  0  0  0  0  0  0  0
   -2.7350  -14.6306    0.0000 C   0  0  0  0  0  0  0  0  0  0  0  0
   -2.7149  -15.4553    0.0000 O   0  0  0  0  0  0  0  0  0  0  0  0
   -2.0308  -14.2008    0.0000 O   0  0  0  0  0  0  0  0  0  0  0  0
   -1.3065  -14.5957    0.0000 C   0  0  0  0  0  0  0  0  0  0  0  0
   -1.2022  -15.4120    0.0000 C   0  0  0  0  0  0  0  0  0  0  0  0
   -0.3913  -15.5638    0.0000 O   0  0  0  0  0  0  0  0  0  0  0  0
   -0.5632  -14.2401    0.0000 C   0  0  0  0  0  0  0  0  0  0  0  0
   -0.0003  -14.8401    0.0000 C   0  0  0  0  0  0  0  0  0  0  0  0
    0.7444  -14.4902    0.0000 C   0  0  0  0  0  0  0  0  0  0  0  0
    0.6417  -13.6738    0.0000 C   0  0  0  0  0  0  0  0  0  0  0  0
   -0.1664  -13.5194    0.0000 O   0  0  0  0  0  0  0  0  0  0  0  0
    0.5940  -15.4083    0.0000 H   0  0  0  0  0  0  0  0  0  0  0  0
   -1.1670  -13.6647    0.0000 H   0  0  0  0  0  0  0  0  0  0  0  0
    1.4671  -14.8880    0.0000 O   0  0  0  0  0  0  0  0  0  0  0  0
   -4.1475  -15.4899    0.0000 O   0  0  0  0  0  0  0  0  0  0  0  0
   -4.8525  -15.9184    0.0000 C   0  0  0  0  0  0  0  0  0  0  0  0
   -5.5761  -15.5221    0.0000 O   0  0  0  0  0  0  0  0  0  0  0  0
   -4.8339  -16.7432    0.0000 C   0  0  0  0  0  0  0  0  0  0  0  0
    1.4839  -15.7128    0.0000 C   0  0  0  0  0  0  0  0  0  0  0  0
    2.2067  -16.1107    0.0000 C   0  0  0  0  0  0  0  0  0  0  0  0
    0.7780  -16.1398    0.0000 O   0  0  0  0  0  0  0  0  0  0  0  0
    2.2235  -16.9355    0.0000 C   0  0  0  0  0  0  0  0  0  0  0  0
    2.9463  -17.3333    0.0000 O   0  0  0  0  0  0  0  0  0  0  0  0
    3.6522  -16.9063    0.0000 N   0  0  0  0  0  0  0  0  0  0  0  0
    3.6376  -16.0790    0.0000 O   0  0  0  0  0  0  0  0  0  0  0  0
    4.3772  -17.3017    0.0000 O   0  0  0  0  0  0  0  0  0  0  0  0
  7  8  2  0
 14 15  1  0
 15 16  1  0
 16 17  1  0
 17 13  1  0
 14 18  1  6
  7  9  1  0
 13 19  1  6
  4  5  1  0
 15 20  1  1
 10  9  1  6
  3 21  1  0
 10 11  1  0
 21 22  1  0
  2  3  1  0
 22 23  2  0
  5  6  2  0
 22 24  1  0
 11 12  1  0
 20 25  1  0
 12 14  1  0
 25 26  1  0
 13 10  1  0
 25 27  2  0
 13 14  1  0
 26 28  1  0
  6  1  1  0
 28 29  1  0
  1  2  2  0
 29 30  1  0
  4  7  1  0
  3  4  2  0
 30 31  2  0
 30 32  1  0
M  CHG  2  30   1  32  -1
M  END

> <chembl_id>
CHEMBL567316

> <chembl_pref_name>
None


$$$$

     RDKit          2D

 37 40  0  0  0  0  0  0  0  0999 V2000
    6.7204  -15.0532    0.0000 C   0  0  0  0  0  0  0  0  0  0  0  0
    6.7380  -15.8809    0.0000 C   0  0  0  0  0  0  0  0  0  0  0  0
    7.4630  -16.2756    0.0000 C   0  0  0  0  0  0  0  0  0  0  0  0
    8.1708  -15.8479    0.0000 C   0  0  0  0  0  0  0  0  0  0  0  0
    8.1491  -15.0172    0.0000 C   0  0  0  0  0  0  0  0  0  0  0  0
    7.4236  -14.6221    0.0000 C   0  0  0  0  0  0  0  0  0  0  0  0
    8.8959  -16.2411    0.0000 C   0  0  0  0  0  0  0  0  0  0  0  0
    8.9160  -17.0663    0.0000 O   0  0  0  0  0  0  0  0  0  0  0  0
    9.6012  -15.8133    0.0000 O   0  0  0  0  0  0  0  0  0  0  0  0
   10.3264  -16.2065    0.0000 C   0  0  0  0  0  0  0  0  0  0  0  0
   10.4303  -17.0232    0.0000 C   0  0  0  0  0  0  0  0  0  0  0  0
   11.2416  -17.1744    0.0000 O   0  0  0  0  0  0  0  0  0  0  0  0
   11.0706  -15.8524    0.0000 C   0  0  0  0  0  0  0  0  0  0  0  0
   11.6310  -16.4539    0.0000 C   0  0  0  0  0  0  0  0  0  0  0  0
   12.3765  -16.1014    0.0000 C   0  0  0  0  0  0  0  0  0  0  0  0
   12.2742  -15.2845    0.0000 C   0  0  0  0  0  0  0  0  0  0  0  0
   11.4655  -15.1308    0.0000 O   0  0  0  0  0  0  0  0  0  0  0  0
   12.2267  -17.0196    0.0000 H   0  0  0  0  0  0  0  0  0  0  0  0
   10.4652  -15.2754    0.0000 H   0  0  0  0  0  0  0  0  0  0  0  0
   13.1001  -16.5016    0.0000 O   0  0  0  0  0  0  0  0  0  0  0  0
    7.4815  -17.1008    0.0000 O   0  0  0  0  0  0  0  0  0  0  0  0
    6.7754  -17.5316    0.0000 C   0  0  0  0  0  0  0  0  0  0  0  0
    6.0551  -17.1328    0.0000 O   0  0  0  0  0  0  0  0  0  0  0  0
    6.7940  -18.3569    0.0000 C   0  0  0  0  0  0  0  0  0  0  0  0
   13.1168  -17.3269    0.0000 C   0  0  0  0  0  0  0  0  0  0  0  0
   13.8405  -17.7229    0.0000 C   0  0  0  0  0  0  0  0  0  0  0  0
   12.4099  -17.7520    0.0000 O   0  0  0  0  0  0  0  0  0  0  0  0
   13.8519  -18.5471    0.0000 C   0  0  0  0  0  0  0  0  0  0  0  0
   14.5748  -18.9472    0.0000 C   0  0  0  0  0  0  0  0  0  0  0  0
   15.2827  -18.5179    0.0000 C   0  0  0  0  0  0  0  0  0  0  0  0
   15.2632  -17.6885    0.0000 C   0  0  0  0  0  0  0  0  0  0  0  0
   14.5399  -17.2961    0.0000 C   0  0  0  0  0  0  0  0  0  0  0  0
   14.5189  -16.4709    0.0000 C   0  0  0  0  0  0  0  0  0  0  0  0
   15.2235  -16.0380    0.0000 O   0  0  0  0  0  0  0  0  0  0  0  0
   15.9492  -16.4345    0.0000 N   0  0  0  0  0  0  0  0  0  0  0  0
   16.6558  -16.0030    0.0000 O   0  0  0  0  0  0  0  0  0  0  0  0
   15.9763  -17.2611    0.0000 O   0  0  0  0  0  0  0  0  0  0  0  0
 14 18  1  6
  7  9  1  0
 13 19  1  6
  4  5  1  0
 15 20  1  1
 10  9  1  6
  3 21  1  0
 10 11  1  0
 21 22  1  0
  2  3  1  0
 22 23  2  0
  5  6  2  0
 22 24  1  0
 11 12  1  0
 20 25  1  0
 12 14  1  0
 25 26  1  0
 13 10  1  0
 25 27  2  0
 13 14  1  0
 26 28  2  0
  6  1  1  0
 28 29  1  0
  1  2  2  0
 29 30  2  0
  4  7  1  0
 30 31  1  0
  3  4  2  0
 31 32  2  0
 32 26  1  0
  7  8  2  0
 32 33  1  0
 14 15  1  0
 33 34  1  0
 15 16  1  0
 34 35  1  0
 16 17  1  0
 17 13  1  0
 35 36  2  0
 35 37  1  0
M  CHG  2  35   1  37  -1
M  END

> <chembl_id>
CHEMBL565401

> <chembl_pref_name>
None


$$$$

     RDKit          2D

 34 37  0  0  0  0  0  0  0  0999 V2000
    6.5592    2.0670    0.0000 C   0  0  0  0  0  0  0  0  0  0  0  0
    6.5769    1.2398    0.0000 C   0  0  0  0  0  0  0  0  0  0  0  0
    7.3010    0.8433    0.0000 C   0  0  0  0  0  0  0  0  0  0  0  0
    8.0079    1.2729    0.0000 C   0  0  0  0  0  0  0  0  0  0  0  0
    7.9861    2.1031    0.0000 C   0  0  0  0  0  0  0  0  0  0  0  0
    7.2616    2.4959    0.0000 C   0  0  0  0  0  0  0  0  0  0  0  0
    8.7322    0.8779    0.0000 C   0  0  0  0  0  0  0  0  0  0  0  0
    8.7523    0.0530    0.0000 O   0  0  0  0  0  0  0  0  0  0  0  0
    9.4365    1.3077    0.0000 O   0  0  0  0  0  0  0  0  0  0  0  0
   10.1608    0.9127    0.0000 C   0  0  0  0  0  0  0  0  0  0  0  0
   10.2651    0.0963    0.0000 C   0  0  0  0  0  0  0  0  0  0  0  0
   11.0761   -0.0555    0.0000 O   0  0  0  0  0  0  0  0  0  0  0  0
   10.9042    1.2683    0.0000 C   0  0  0  0  0  0  0  0  0  0  0  0
   11.4671    0.6682    0.0000 C   0  0  0  0  0  0  0  0  0  0  0  0
   12.2118    1.0182    0.0000 C   0  0  0  0  0  0  0  0  0  0  0  0
   12.1091    1.8346    0.0000 C   0  0  0  0  0  0  0  0  0  0  0  0
   11.3010    1.9890    0.0000 O   0  0  0  0  0  0  0  0  0  0  0  0
   12.0614    0.1000    0.0000 H   0  0  0  0  0  0  0  0  0  0  0  0
   10.3002    1.8438    0.0000 H   0  0  0  0  0  0  0  0  0  0  0  0
   12.9346    0.6203    0.0000 O   0  0  0  0  0  0  0  0  0  0  0  0
    7.3196    0.0184    0.0000 O   0  0  0  0  0  0  0  0  0  0  0  0
    6.6145   -0.4101    0.0000 C   0  0  0  0  0  0  0  0  0  0  0  0
    5.8910   -0.0138    0.0000 O   0  0  0  0  0  0  0  0  0  0  0  0
   13.6406    1.0474    0.0000 C   0  0  0  0  0  0  0  0  0  0  0  0
   14.3633    0.6495    0.0000 C   0  0  0  0  0  0  0  0  0  0  0  0
   13.6236    1.8722    0.0000 O   0  0  0  0  0  0  0  0  0  0  0  0
   14.3775   -0.1760    0.0000 C   0  0  0  0  0  0  0  0  0  0  0  0
   15.0994   -0.5737    0.0000 C   0  0  0  0  0  0  0  0  0  0  0  0
   15.8064   -0.1466    0.0000 C   0  0  0  0  0  0  0  0  0  0  0  0
   15.7868    0.6824    0.0000 C   0  0  0  0  0  0  0  0  0  0  0  0
   15.0643    1.0765    0.0000 C   0  0  0  0  0  0  0  0  0  0  0  0
    6.6331   -1.2350    0.0000 C   0  0  0  0  0  0  0  0  0  0  0  0
   16.4912    1.1120    0.0000 O   0  0  0  0  0  0  0  0  0  0  0  0
   17.2154    0.7166    0.0000 C   0  0  0  0  0  0  0  0  0  0  0  0
 15 16  1  0
 16 17  1  0
 17 13  1  0
 14 18  1  6
  7  9  1  0
 13 19  1  6
  4  5  1  0
 15 20  1  1
 10  9  1  6
  3 21  1  0
 10 11  1  0
 21 22  1  0
  2  3  1  0
 22 23  2  0
  5  6  2  0
 20 24  1  0
 11 12  1  0
 24 25  1  0
 12 14  1  0
 24 26  2  0
 13 10  1  0
 25 27  2  0
 13 14  1  0
 27 28  1  0
  6  1  1  0
 28 29  2  0
  1  2  2  0
 29 30  1  0
  4  7  1  0
 30 31  2  0
 31 25  1  0
  3  4  2  0
 22 32  1  0
  7  8  2  0
 30 33  1  0
 14 15  1  0
 33 34  1  0
M  END

> <chembl_id>
CHEMBL565820

> <chembl_pref_name>
None


$$$$

     RDKit          2D

 34 37  0  0  0  0  0  0  0  0999 V2000
   -4.3165   -1.2707    0.0000 C   0  0  0  0  0  0  0  0  0  0  0  0
   -4.2988   -2.0979    0.0000 C   0  0  0  0  0  0  0  0  0  0  0  0
   -3.5747   -2.4945    0.0000 C   0  0  0  0  0  0  0  0  0  0  0  0
   -2.8678   -2.0648    0.0000 C   0  0  0  0  0  0  0  0  0  0  0  0
   -2.8896   -1.2346    0.0000 C   0  0  0  0  0  0  0  0  0  0  0  0
   -3.6141   -0.8419    0.0000 C   0  0  0  0  0  0  0  0  0  0  0  0
   -2.1434   -2.4599    0.0000 C   0  0  0  0  0  0  0  0  0  0  0  0
   -2.1233   -3.2847    0.0000 O   0  0  0  0  0  0  0  0  0  0  0  0
   -1.4392   -2.0300    0.0000 O   0  0  0  0  0  0  0  0  0  0  0  0
   -0.7148   -2.4251    0.0000 C   0  0  0  0  0  0  0  0  0  0  0  0
   -0.6105   -3.2414    0.0000 C   0  0  0  0  0  0  0  0  0  0  0  0
    0.2004   -3.3932    0.0000 O   0  0  0  0  0  0  0  0  0  0  0  0
    0.0285   -2.0694    0.0000 C   0  0  0  0  0  0  0  0  0  0  0  0
    0.5914   -2.6695    0.0000 C   0  0  0  0  0  0  0  0  0  0  0  0
    1.3361   -2.3195    0.0000 C   0  0  0  0  0  0  0  0  0  0  0  0
    1.2334   -1.5031    0.0000 C   0  0  0  0  0  0  0  0  0  0  0  0
    0.4253   -1.3487    0.0000 O   0  0  0  0  0  0  0  0  0  0  0  0
    1.1857   -3.2377    0.0000 H   0  0  0  0  0  0  0  0  0  0  0  0
   -0.5754   -1.4939    0.0000 H   0  0  0  0  0  0  0  0  0  0  0  0
    2.0589   -2.7174    0.0000 O   0  0  0  0  0  0  0  0  0  0  0  0
   -3.5561   -3.3193    0.0000 O   0  0  0  0  0  0  0  0  0  0  0  0
   -4.2612   -3.7478    0.0000 C   0  0  0  0  0  0  0  0  0  0  0  0
   -4.9847   -3.3515    0.0000 O   0  0  0  0  0  0  0  0  0  0  0  0
    2.7649   -2.2903    0.0000 C   0  0  0  0  0  0  0  0  0  0  0  0
    3.4876   -2.6882    0.0000 C   0  0  0  0  0  0  0  0  0  0  0  0
    2.7480   -1.4655    0.0000 O   0  0  0  0  0  0  0  0  0  0  0  0
    3.5018   -3.5137    0.0000 C   0  0  0  0  0  0  0  0  0  0  0  0
    4.2238   -3.9114    0.0000 C   0  0  0  0  0  0  0  0  0  0  0  0
    4.9307   -3.4843    0.0000 C   0  0  0  0  0  0  0  0  0  0  0  0
    4.9111   -2.6553    0.0000 C   0  0  0  0  0  0  0  0  0  0  0  0
    4.1887   -2.2612    0.0000 C   0  0  0  0  0  0  0  0  0  0  0  0
   -4.2426   -4.5727    0.0000 C   0  0  0  0  0  0  0  0  0  0  0  0
    5.6540   -3.8812    0.0000 O   0  0  0  0  0  0  0  0  0  0  0  0
    5.6720   -4.7061    0.0000 C   0  0  0  0  0  0  0  0  0  0  0  0
 15 16  1  0
 16 17  1  0
 17 13  1  0
 14 18  1  6
  7  9  1  0
 13 19  1  6
  4  5  1  0
 15 20  1  1
 10  9  1  6
  3 21  1  0
 10 11  1  0
 21 22  1  0
  2  3  1  0
 22 23  2  0
  5  6  2  0
 20 24  1  0
 11 12  1  0
 24 25  1  0
 12 14  1  0
 24 26  2  0
 13 10  1  0
 25 27  2  0
 13 14  1  0
 27 28  1  0
  6  1  1  0
 28 29  2  0
  1  2  2  0
 29 30  1  0
  4  7  1  0
 30 31  2  0
 31 25  1  0
  3  4  2  0
 22 32  1  0
  7  8  2  0
 29 33  1  0
 14 15  1  0
 33 34  1  0
M  END

> <chembl_id>
CHEMBL585135

> <chembl_pref_name>
None


$$$$

     RDKit          2D

 41 45  0  0  0  0  0  0  0  0999 V2000
    6.7890   -3.3421    0.0000 C   0  0  0  0  0  0  0  0  0  0  0  0
    6.8067   -4.1693    0.0000 C   0  0  0  0  0  0  0  0  0  0  0  0
    7.5309   -4.5659    0.0000 C   0  0  0  0  0  0  0  0  0  0  0  0
    8.2377   -4.1362    0.0000 C   0  0  0  0  0  0  0  0  0  0  0  0
    8.2160   -3.3059    0.0000 C   0  0  0  0  0  0  0  0  0  0  0  0
    7.4914   -2.9130    0.0000 C   0  0  0  0  0  0  0  0  0  0  0  0
    8.9622   -4.5314    0.0000 C   0  0  0  0  0  0  0  0  0  0  0  0
    8.9823   -5.3561    0.0000 O   0  0  0  0  0  0  0  0  0  0  0  0
    9.6667   -4.1014    0.0000 O   0  0  0  0  0  0  0  0  0  0  0  0
   10.3910   -4.4965    0.0000 C   0  0  0  0  0  0  0  0  0  0  0  0
   10.4952   -5.3128    0.0000 C   0  0  0  0  0  0  0  0  0  0  0  0
   11.3063   -5.4646    0.0000 O   0  0  0  0  0  0  0  0  0  0  0  0
   11.1345   -4.1407    0.0000 C   0  0  0  0  0  0  0  0  0  0  0  0
   11.6974   -4.7409    0.0000 C   0  0  0  0  0  0  0  0  0  0  0  0
   12.4422   -4.3908    0.0000 C   0  0  0  0  0  0  0  0  0  0  0  0
   12.3395   -3.5744    0.0000 C   0  0  0  0  0  0  0  0  0  0  0  0
   11.5312   -3.4200    0.0000 O   0  0  0  0  0  0  0  0  0  0  0  0
   12.2918   -5.3091    0.0000 H   0  0  0  0  0  0  0  0  0  0  0  0
   10.5304   -3.5653    0.0000 H   0  0  0  0  0  0  0  0  0  0  0  0
   13.1649   -4.7888    0.0000 O   0  0  0  0  0  0  0  0  0  0  0  0
    7.5495   -5.3907    0.0000 O   0  0  0  0  0  0  0  0  0  0  0  0
    6.8443   -5.8194    0.0000 C   0  0  0  0  0  0  0  0  0  0  0  0
    6.1207   -5.4229    0.0000 O   0  0  0  0  0  0  0  0  0  0  0  0
   13.8710   -4.3616    0.0000 C   0  0  0  0  0  0  0  0  0  0  0  0
   14.5938   -4.7596    0.0000 C   0  0  0  0  0  0  0  0  0  0  0  0
   13.8542   -3.5368    0.0000 O   0  0  0  0  0  0  0  0  0  0  0  0
   14.6079   -5.5851    0.0000 C   0  0  0  0  0  0  0  0  0  0  0  0
   15.3300   -5.9831    0.0000 C   0  0  0  0  0  0  0  0  0  0  0  0
   16.0371   -5.5558    0.0000 C   0  0  0  0  0  0  0  0  0  0  0  0
   16.0175   -4.7267    0.0000 C   0  0  0  0  0  0  0  0  0  0  0  0
   15.2949   -4.3325    0.0000 C   0  0  0  0  0  0  0  0  0  0  0  0
    6.8629   -6.6442    0.0000 C   0  0  0  0  0  0  0  0  0  0  0  0
   15.2753   -3.5078    0.0000 O   0  0  0  0  0  0  0  0  0  0  0  0
   15.9799   -3.0781    0.0000 C   0  0  0  0  0  0  0  0  0  0  0  0
   15.9602   -2.2534    0.0000 C   0  0  0  0  0  0  0  0  0  0  0  0
   16.7040   -3.4737    0.0000 O   0  0  0  0  0  0  0  0  0  0  0  0
   16.6641   -1.8264    0.0000 C   0  0  0  0  0  0  0  0  0  0  0  0
   16.6448   -1.0024    0.0000 C   0  0  0  0  0  0  0  0  0  0  0  0
   15.9199   -0.6061    0.0000 C   0  0  0  0  0  0  0  0  0  0  0  0
   15.2132   -1.0402    0.0000 C   0  0  0  0  0  0  0  0  0  0  0  0
   15.2360   -1.8628    0.0000 C   0  0  0  0  0  0  0  0  0  0  0  0
  4  5  1  0
 15 20  1  1
 10  9  1  6
  3 21  1  0
 10 11  1  0
 21 22  1  0
  2  3  1  0
 22 23  2  0
  5  6  2  0
 20 24  1  0
 11 12  1  0
 24 25  1  0
 12 14  1  0
 24 26  2  0
 13 10  1  0
 25 27  2  0
 13 14  1  0
 27 28  1  0
  6  1  1  0
 28 29  2  0
  1  2  2  0
 29 30  1  0
  4  7  1  0
 30 31  2  0
 31 25  1  0
  3  4  2  0
 22 32  1  0
  7  8  2  0
 31 33  1  0
 14 15  1  0
 33 34  1  0
 15 16  1  0
 34 35  1  0
 16 17  1  0
 34 36  2  0
 17 13  1  0
 35 37  2  0
 37 38  1  0
 14 18  1  6
 38 39  2  0
  7  9  1  0
 39 40  1  0
 13 19  1  6
 40 41  2  0
 41 35  1  0
M  END

> <chembl_id>
CHEMBL569001

> <chembl_pref_name>
None


$$$$

     RDKit          2D

 33 36  0  0  0  0  0  0  0  0999 V2000
    7.7468  -21.0136    0.0000 C   0  0  0  0  0  0  0  0  0  0  0  0
    7.7645  -21.8409    0.0000 C   0  0  0  0  0  0  0  0  0  0  0  0
    8.4885  -22.2374    0.0000 C   0  0  0  0  0  0  0  0  0  0  0  0
    9.1955  -21.8078    0.0000 C   0  0  0  0  0  0  0  0  0  0  0  0
    9.1737  -20.9775    0.0000 C   0  0  0  0  0  0  0  0  0  0  0  0
    8.4491  -20.5847    0.0000 C   0  0  0  0  0  0  0  0  0  0  0  0
    9.9198  -22.2028    0.0000 C   0  0  0  0  0  0  0  0  0  0  0  0
    9.9399  -23.0275    0.0000 O   0  0  0  0  0  0  0  0  0  0  0  0
   10.6241  -21.7730    0.0000 O   0  0  0  0  0  0  0  0  0  0  0  0
   11.3484  -22.1680    0.0000 C   0  0  0  0  0  0  0  0  0  0  0  0
   11.4527  -22.9842    0.0000 C   0  0  0  0  0  0  0  0  0  0  0  0
   12.2637  -23.1360    0.0000 O   0  0  0  0  0  0  0  0  0  0  0  0
   12.0918  -21.8123    0.0000 C   0  0  0  0  0  0  0  0  0  0  0  0
   12.6547  -22.4123    0.0000 C   0  0  0  0  0  0  0  0  0  0  0  0
   13.3993  -22.0624    0.0000 C   0  0  0  0  0  0  0  0  0  0  0  0
   13.2966  -21.2460    0.0000 C   0  0  0  0  0  0  0  0  0  0  0  0
   12.4886  -21.0915    0.0000 O   0  0  0  0  0  0  0  0  0  0  0  0
   13.2489  -22.9806    0.0000 H   0  0  0  0  0  0  0  0  0  0  0  0
   11.4878  -21.2368    0.0000 H   0  0  0  0  0  0  0  0  0  0  0  0
   14.1222  -22.4603    0.0000 O   0  0  0  0  0  0  0  0  0  0  0  0
    8.5071  -23.0622    0.0000 O   0  0  0  0  0  0  0  0  0  0  0  0
    7.8021  -23.4908    0.0000 C   0  0  0  0  0  0  0  0  0  0  0  0
    7.0785  -23.0944    0.0000 O   0  0  0  0  0  0  0  0  0  0  0  0
   14.8281  -22.0333    0.0000 C   0  0  0  0  0  0  0  0  0  0  0  0
   15.5509  -22.4311    0.0000 C   0  0  0  0  0  0  0  0  0  0  0  0
   14.8112  -21.2083    0.0000 O   0  0  0  0  0  0  0  0  0  0  0  0
   15.5651  -23.2566    0.0000 C   0  0  0  0  0  0  0  0  0  0  0  0
   16.2870  -23.6544    0.0000 C   0  0  0  0  0  0  0  0  0  0  0  0
   16.9940  -23.2272    0.0000 C   0  0  0  0  0  0  0  0  0  0  0  0
   16.9744  -22.3982    0.0000 N   0  0  0  0  0  0  0  0  0  0  0  0
   16.2519  -22.0042    0.0000 C   0  0  0  0  0  0  0  0  0  0  0  0
    7.8207  -24.3156    0.0000 C   0  0  0  0  0  0  0  0  0  0  0  0
   14.8583  -23.6823    0.0000 Cl  0  0  0  0  0  0  0  0  0  0  0  0
 14 15  1  0
 15 16  1  0
 16 17  1  0
 17 13  1  0
 14 18  1  6
  7  9  1  0
 13 19  1  6
  4  5  1  0
 15 20  1  1
 10  9  1  6
  3 21  1  0
 10 11  1  0
 21 22  1  0
  2  3  1  0
 22 23  2  0
  5  6  2  0
 20 24  1  0
 11 12  1  0
 24 25  1  0
 12 14  1  0
 24 26  2  0
 13 10  1  0
 25 27  2  0
 13 14  1  0
 27 28  1  0
  6  1  1  0
 28 29  2  0
  1  2  2  0
 29 30  1  0
  4  7  1  0
 30 31  2  0
 31 25  1  0
  3  4  2  0
 22 32  1  0
  7  8  2  0
 27 33  1  0
M  END

> <chembl_id>
CHEMBL585510

> <chembl_pref_name>
None


$$$$

     RDKit          2D

 35 38  0  0  0  0  0  0  0  0999 V2000
   -4.9704   -5.8331    0.0000 C   0  0  0  0  0  0  0  0  0  0  0  0
   -4.9527   -6.6603    0.0000 C   0  0  0  0  0  0  0  0  0  0  0  0
   -4.2286   -7.0568    0.0000 C   0  0  0  0  0  0  0  0  0  0  0  0
   -3.5218   -6.6272    0.0000 C   0  0  0  0  0  0  0  0  0  0  0  0
   -3.5436   -5.7970    0.0000 C   0  0  0  0  0  0  0  0  0  0  0  0
   -4.2681   -5.4043    0.0000 C   0  0  0  0  0  0  0  0  0  0  0  0
   -2.7975   -7.0222    0.0000 C   0  0  0  0  0  0  0  0  0  0  0  0
   -2.7774   -7.8470    0.0000 O   0  0  0  0  0  0  0  0  0  0  0  0
   -2.0933   -6.5924    0.0000 O   0  0  0  0  0  0  0  0  0  0  0  0
   -1.3690   -6.9874    0.0000 C   0  0  0  0  0  0  0  0  0  0  0  0
   -1.2647   -7.8037    0.0000 C   0  0  0  0  0  0  0  0  0  0  0  0
   -0.4538   -7.9555    0.0000 O   0  0  0  0  0  0  0  0  0  0  0  0
   -0.6257   -6.6318    0.0000 C   0  0  0  0  0  0  0  0  0  0  0  0
   -0.0628   -7.2318    0.0000 C   0  0  0  0  0  0  0  0  0  0  0  0
    0.6819   -6.8819    0.0000 C   0  0  0  0  0  0  0  0  0  0  0  0
    0.5792   -6.0655    0.0000 C   0  0  0  0  0  0  0  0  0  0  0  0
   -0.2289   -5.9111    0.0000 O   0  0  0  0  0  0  0  0  0  0  0  0
    0.5315   -7.8000    0.0000 H   0  0  0  0  0  0  0  0  0  0  0  0
   -1.2295   -6.0563    0.0000 H   0  0  0  0  0  0  0  0  0  0  0  0
    1.4046   -7.2797    0.0000 O   0  0  0  0  0  0  0  0  0  0  0  0
   -4.2100   -7.8816    0.0000 O   0  0  0  0  0  0  0  0  0  0  0  0
   -4.9150   -8.3101    0.0000 C   0  0  0  0  0  0  0  0  0  0  0  0
   -5.6386   -7.9138    0.0000 O   0  0  0  0  0  0  0  0  0  0  0  0
    2.1105   -6.8527    0.0000 C   0  0  0  0  0  0  0  0  0  0  0  0
    2.8332   -7.2505    0.0000 C   0  0  0  0  0  0  0  0  0  0  0  0
    2.0937   -6.0279    0.0000 O   0  0  0  0  0  0  0  0  0  0  0  0
    2.8474   -8.0760    0.0000 C   0  0  0  0  0  0  0  0  0  0  0  0
    3.5693   -8.4737    0.0000 C   0  0  0  0  0  0  0  0  0  0  0  0
    4.2762   -8.0466    0.0000 C   0  0  0  0  0  0  0  0  0  0  0  0
    4.2566   -7.2176    0.0000 C   0  0  0  0  0  0  0  0  0  0  0  0
    3.5342   -6.8236    0.0000 C   0  0  0  0  0  0  0  0  0  0  0  0
   -4.8964   -9.1349    0.0000 C   0  0  0  0  0  0  0  0  0  0  0  0
    5.0039   -8.4431    0.0000 N   0  0  0  0  0  0  0  0  0  0  0  0
    5.7093   -8.0152    0.0000 O   0  0  0  0  0  0  0  0  0  0  0  0
    5.0219   -9.2679    0.0000 O   0  0  0  0  0  0  0  0  0  0  0  0
 16 17  1  0
 17 13  1  0
 14 18  1  6
  7  9  1  0
 13 19  1  6
  4  5  1  0
 15 20  1  1
 10  9  1  6
  3 21  1  0
 10 11  1  0
 21 22  1  0
  2  3  1  0
 22 23  2  0
  5  6  2  0
 20 24  1  0
 11 12  1  0
 24 25  1  0
 12 14  1  0
 24 26  2  0
 13 10  1  0
 25 27  2  0
 13 14  1  0
 27 28  1  0
  6  1  1  0
 28 29  2  0
  1  2  2  0
 29 30  1  0
  4  7  1  0
 30 31  2  0
 31 25  1  0
  3  4  2  0
 22 32  1  0
  7  8  2  0
 14 15  1  0
 15 16  1  0
 33 34  2  0
 33 35  1  0
 29 33  1  0
M  CHG  2  33   1  35  -1
M  END

> <chembl_id>
CHEMBL566039

> <chembl_pref_name>
None


$$$$

     RDKit          2D

 34 37  0  0  0  0  0  0  0  0999 V2000
    7.3546   -7.2498    0.0000 C   0  0  0  0  0  0  0  0  0  0  0  0
    7.3723   -8.0770    0.0000 C   0  0  0  0  0  0  0  0  0  0  0  0
    8.0964   -8.4735    0.0000 C   0  0  0  0  0  0  0  0  0  0  0  0
    8.8032   -8.0439    0.0000 C   0  0  0  0  0  0  0  0  0  0  0  0
    8.7814   -7.2137    0.0000 C   0  0  0  0  0  0  0  0  0  0  0  0
    8.0569   -6.8209    0.0000 C   0  0  0  0  0  0  0  0  0  0  0  0
    9.5275   -8.4389    0.0000 C   0  0  0  0  0  0  0  0  0  0  0  0
    9.5476   -9.2636    0.0000 O   0  0  0  0  0  0  0  0  0  0  0  0
   10.2317   -8.0091    0.0000 O   0  0  0  0  0  0  0  0  0  0  0  0
   10.9560   -8.4041    0.0000 C   0  0  0  0  0  0  0  0  0  0  0  0
   11.0603   -9.2203    0.0000 C   0  0  0  0  0  0  0  0  0  0  0  0
   11.8712   -9.3721    0.0000 O   0  0  0  0  0  0  0  0  0  0  0  0
   11.6993   -8.0484    0.0000 C   0  0  0  0  0  0  0  0  0  0  0  0
   12.2622   -8.6484    0.0000 C   0  0  0  0  0  0  0  0  0  0  0  0
   13.0069   -8.2985    0.0000 C   0  0  0  0  0  0  0  0  0  0  0  0
   12.9042   -7.4822    0.0000 C   0  0  0  0  0  0  0  0  0  0  0  0
   12.0961   -7.3277    0.0000 O   0  0  0  0  0  0  0  0  0  0  0  0
   12.8565   -9.2167    0.0000 H   0  0  0  0  0  0  0  0  0  0  0  0
   11.0955   -7.4730    0.0000 H   0  0  0  0  0  0  0  0  0  0  0  0
   13.7296   -8.6964    0.0000 O   0  0  0  0  0  0  0  0  0  0  0  0
    8.1150   -9.2983    0.0000 O   0  0  0  0  0  0  0  0  0  0  0  0
    7.4100   -9.7268    0.0000 C   0  0  0  0  0  0  0  0  0  0  0  0
    6.6864   -9.3305    0.0000 O   0  0  0  0  0  0  0  0  0  0  0  0
   14.4355   -8.2694    0.0000 C   0  0  0  0  0  0  0  0  0  0  0  0
   15.1582   -8.6672    0.0000 C   0  0  0  0  0  0  0  0  0  0  0  0
   14.4187   -7.4445    0.0000 O   0  0  0  0  0  0  0  0  0  0  0  0
   15.1724   -9.4926    0.0000 C   0  0  0  0  0  0  0  0  0  0  0  0
   15.8943   -9.8904    0.0000 C   0  0  0  0  0  0  0  0  0  0  0  0
   16.6012   -9.4633    0.0000 C   0  0  0  0  0  0  0  0  0  0  0  0
   16.5816   -8.6343    0.0000 C   0  0  0  0  0  0  0  0  0  0  0  0
   15.8592   -8.2403    0.0000 C   0  0  0  0  0  0  0  0  0  0  0  0
    7.4286  -10.5516    0.0000 C   0  0  0  0  0  0  0  0  0  0  0  0
   17.3245   -9.8602    0.0000 C   0  0  0  0  0  0  0  0  0  0  0  0
   18.0426  -10.2543    0.0000 N   0  0  0  0  0  0  0  0  0  0  0  0
 15 16  1  0
 16 17  1  0
 17 13  1  0
 14 18  1  6
  7  9  1  0
 13 19  1  6
  4  5  1  0
 15 20  1  1
 10  9  1  6
  3 21  1  0
 10 11  1  0
 21 22  1  0
  2  3  1  0
 22 23  2  0
  5  6  2  0
 20 24  1  0
 11 12  1  0
 24 25  1  0
 12 14  1  0
 24 26  2  0
 13 10  1  0
 25 27  2  0
 13 14  1  0
 27 28  1  0
  6  1  1  0
 28 29  2  0
  1  2  2  0
 29 30  1  0
  4  7  1  0
 30 31  2  0
 31 25  1  0
  3  4  2  0
 22 32  1  0
  7  8  2  0
 29 33  1  0
 14 15  1  0
 33 34  3  0
M  END

> <chembl_id>
CHEMBL565642

> <chembl_pref_name>
None


$$$$

     RDKit          2D

 31 33  0  0  0  0  0  0  0  0999 V2000
    4.4338   -9.2623    0.0000 C   0  0  0  0  0  0  0  0  0  0  0  0
    4.4515  -10.0895    0.0000 C   0  0  0  0  0  0  0  0  0  0  0  0
    5.1755  -10.4860    0.0000 C   0  0  0  0  0  0  0  0  0  0  0  0
    5.8824  -10.0564    0.0000 C   0  0  0  0  0  0  0  0  0  0  0  0
    5.8606   -9.2262    0.0000 C   0  0  0  0  0  0  0  0  0  0  0  0
    5.1361   -8.8334    0.0000 C   0  0  0  0  0  0  0  0  0  0  0  0
    6.6067  -10.4514    0.0000 C   0  0  0  0  0  0  0  0  0  0  0  0
    6.6268  -11.2761    0.0000 O   0  0  0  0  0  0  0  0  0  0  0  0
    7.3109  -10.0216    0.0000 O   0  0  0  0  0  0  0  0  0  0  0  0
    8.0352  -10.4166    0.0000 C   0  0  0  0  0  0  0  0  0  0  0  0
    8.1395  -11.2328    0.0000 C   0  0  0  0  0  0  0  0  0  0  0  0
    8.9504  -11.3846    0.0000 O   0  0  0  0  0  0  0  0  0  0  0  0
    8.7785  -10.0609    0.0000 C   0  0  0  0  0  0  0  0  0  0  0  0
    9.3414  -10.6609    0.0000 C   0  0  0  0  0  0  0  0  0  0  0  0
   10.0860  -10.3110    0.0000 C   0  0  0  0  0  0  0  0  0  0  0  0
    9.9833   -9.4947    0.0000 C   0  0  0  0  0  0  0  0  0  0  0  0
    9.1753   -9.3402    0.0000 O   0  0  0  0  0  0  0  0  0  0  0  0
    9.9356  -11.2292    0.0000 H   0  0  0  0  0  0  0  0  0  0  0  0
    8.1746   -9.4855    0.0000 H   0  0  0  0  0  0  0  0  0  0  0  0
   10.8088  -10.7089    0.0000 O   0  0  0  0  0  0  0  0  0  0  0  0
    5.1941  -11.3108    0.0000 O   0  0  0  0  0  0  0  0  0  0  0  0
    4.4891  -11.7393    0.0000 C   0  0  0  0  0  0  0  0  0  0  0  0
    3.7656  -11.3430    0.0000 O   0  0  0  0  0  0  0  0  0  0  0  0
    4.5077  -12.5641    0.0000 C   0  0  0  0  0  0  0  0  0  0  0  0
   10.8256  -11.5337    0.0000 C   0  0  0  0  0  0  0  0  0  0  0  0
   11.5484  -11.9315    0.0000 C   0  0  0  0  0  0  0  0  0  0  0  0
   10.1197  -11.9607    0.0000 O   0  0  0  0  0  0  0  0  0  0  0  0
   11.5652  -12.7563    0.0000 O   0  0  0  0  0  0  0  0  0  0  0  0
   12.2879  -13.1542    0.0000 N   0  0  0  0  0  0  0  0  0  0  0  0
   12.9967  -12.7308    0.0000 O   0  0  0  0  0  0  0  0  0  0  0  0
   12.3076  -13.9826    0.0000 O   0  0  0  0  0  0  0  0  0  0  0  0
  3  4  2  0
  7  8  2  0
 14 15  1  0
 15 16  1  0
 16 17  1  0
 17 13  1  0
 14 18  1  6
  7  9  1  0
 13 19  1  6
  4  5  1  0
 15 20  1  1
 10  9  1  6
  3 21  1  0
 10 11  1  0
 21 22  1  0
  2  3  1  0
 22 23  2  0
  5  6  2  0
 22 24  1  0
 11 12  1  0
 20 25  1  0
 12 14  1  0
 25 26  1  0
 13 10  1  0
 25 27  2  0
 13 14  1  0
 26 28  1  0
  6  1  1  0
 28 29  1  0
  1  2  2  0
  4  7  1  0
 29 30  2  0
 29 31  1  0
M  CHG  2  29   1  31  -1
M  END

> <chembl_id>
CHEMBL566866

> <chembl_pref_name>
None


$$$$

     RDKit          2D

 38 41  0  0  0  0  0  0  0  0999 V2000
    8.2880  -11.7123    0.0000 C   0  0  0  0  0  0  0  0  0  0  0  0
    8.3057  -12.5395    0.0000 C   0  0  0  0  0  0  0  0  0  0  0  0
    9.0297  -12.9360    0.0000 C   0  0  0  0  0  0  0  0  0  0  0  0
    9.7365  -12.5064    0.0000 C   0  0  0  0  0  0  0  0  0  0  0  0
    9.7148  -11.6762    0.0000 C   0  0  0  0  0  0  0  0  0  0  0  0
    8.9902  -11.2834    0.0000 C   0  0  0  0  0  0  0  0  0  0  0  0
   10.4608  -12.9014    0.0000 C   0  0  0  0  0  0  0  0  0  0  0  0
   10.4809  -13.7261    0.0000 O   0  0  0  0  0  0  0  0  0  0  0  0
   11.1651  -12.4716    0.0000 O   0  0  0  0  0  0  0  0  0  0  0  0
   11.8894  -12.8666    0.0000 C   0  0  0  0  0  0  0  0  0  0  0  0
   11.9936  -13.6828    0.0000 C   0  0  0  0  0  0  0  0  0  0  0  0
   12.8045  -13.8346    0.0000 O   0  0  0  0  0  0  0  0  0  0  0  0
   12.6327  -12.5109    0.0000 C   0  0  0  0  0  0  0  0  0  0  0  0
   13.1956  -13.1109    0.0000 C   0  0  0  0  0  0  0  0  0  0  0  0
   13.9402  -12.7610    0.0000 C   0  0  0  0  0  0  0  0  0  0  0  0
   13.8375  -11.9447    0.0000 C   0  0  0  0  0  0  0  0  0  0  0  0
   13.0294  -11.7902    0.0000 O   0  0  0  0  0  0  0  0  0  0  0  0
   13.7898  -13.6792    0.0000 H   0  0  0  0  0  0  0  0  0  0  0  0
   12.0288  -11.9355    0.0000 H   0  0  0  0  0  0  0  0  0  0  0  0
   14.6629  -13.1589    0.0000 O   0  0  0  0  0  0  0  0  0  0  0  0
    9.0483  -13.7608    0.0000 O   0  0  0  0  0  0  0  0  0  0  0  0
    8.3433  -14.1893    0.0000 C   0  0  0  0  0  0  0  0  0  0  0  0
    7.6197  -13.7930    0.0000 O   0  0  0  0  0  0  0  0  0  0  0  0
   15.3688  -12.7319    0.0000 C   0  0  0  0  0  0  0  0  0  0  0  0
   16.0916  -13.1297    0.0000 C   0  0  0  0  0  0  0  0  0  0  0  0
   15.3520  -11.9070    0.0000 O   0  0  0  0  0  0  0  0  0  0  0  0
   16.1057  -13.9551    0.0000 C   0  0  0  0  0  0  0  0  0  0  0  0
   16.8276  -14.3529    0.0000 C   0  0  0  0  0  0  0  0  0  0  0  0
   17.5345  -13.9258    0.0000 C   0  0  0  0  0  0  0  0  0  0  0  0
   17.5149  -13.0968    0.0000 C   0  0  0  0  0  0  0  0  0  0  0  0
   16.7925  -12.7028    0.0000 C   0  0  0  0  0  0  0  0  0  0  0  0
    8.3619  -15.0141    0.0000 C   0  0  0  0  0  0  0  0  0  0  0  0
   18.2193  -12.6673    0.0000 O   0  0  0  0  0  0  0  0  0  0  0  0
   18.9435  -13.0626    0.0000 C   0  0  0  0  0  0  0  0  0  0  0  0
   19.6479  -12.6331    0.0000 C   0  0  0  0  0  0  0  0  0  0  0  0
   16.8441  -15.1777    0.0000 O   0  0  0  0  0  0  0  0  0  0  0  0
   16.1380  -15.6044    0.0000 C   0  0  0  0  0  0  0  0  0  0  0  0
   16.1544  -16.4292    0.0000 C   0  0  0  0  0  0  0  0  0  0  0  0
 14 18  1  6
  7  9  1  0
 13 19  1  6
  4  5  1  0
 15 20  1  1
 10  9  1  6
  3 21  1  0
 10 11  1  0
 21 22  1  0
  2  3  1  0
 22 23  2  0
  5  6  2  0
 20 24  1  0
 11 12  1  0
 24 25  1  0
 12 14  1  0
 24 26  2  0
 13 10  1  0
 25 27  2  0
 13 14  1  0
 27 28  1  0
  6  1  1  0
 28 29  2  0
  1  2  2  0
 29 30  1  0
  4  7  1  0
 30 31  2  0
 31 25  1  0
  3  4  2  0
 22 32  1  0
  7  8  2  0
 30 33  1  0
 14 15  1  0
 33 34  1  0
 15 16  1  0
 34 35  1  0
 16 17  1  0
 28 36  1  0
 17 13  1  0
 36 37  1  0
 37 38  1  0
M  END

> <chembl_id>
CHEMBL565822

> <chembl_pref_name>
None


$$$$

     RDKit          2D

 37 40  0  0  0  0  0  0  0  0999 V2000
   -5.3537  -18.9123    0.0000 C   0  0  0  0  0  0  0  0  0  0  0  0
   -5.3360  -19.7395    0.0000 C   0  0  0  0  0  0  0  0  0  0  0  0
   -4.6120  -20.1360    0.0000 C   0  0  0  0  0  0  0  0  0  0  0  0
   -3.9051  -19.7064    0.0000 C   0  0  0  0  0  0  0  0  0  0  0  0
   -3.9269  -18.8762    0.0000 C   0  0  0  0  0  0  0  0  0  0  0  0
   -4.6514  -18.4834    0.0000 C   0  0  0  0  0  0  0  0  0  0  0  0
   -3.1808  -20.1014    0.0000 C   0  0  0  0  0  0  0  0  0  0  0  0
   -3.1607  -20.9261    0.0000 O   0  0  0  0  0  0  0  0  0  0  0  0
   -2.4766  -19.6716    0.0000 O   0  0  0  0  0  0  0  0  0  0  0  0
   -1.7523  -20.0666    0.0000 C   0  0  0  0  0  0  0  0  0  0  0  0
   -1.6480  -20.8828    0.0000 C   0  0  0  0  0  0  0  0  0  0  0  0
   -0.8371  -21.0346    0.0000 O   0  0  0  0  0  0  0  0  0  0  0  0
   -1.0090  -19.7109    0.0000 C   0  0  0  0  0  0  0  0  0  0  0  0
   -0.4461  -20.3109    0.0000 C   0  0  0  0  0  0  0  0  0  0  0  0
    0.2985  -19.9610    0.0000 C   0  0  0  0  0  0  0  0  0  0  0  0
    0.1958  -19.1447    0.0000 C   0  0  0  0  0  0  0  0  0  0  0  0
   -0.6122  -18.9902    0.0000 O   0  0  0  0  0  0  0  0  0  0  0  0
    0.1481  -20.8792    0.0000 H   0  0  0  0  0  0  0  0  0  0  0  0
   -1.6129  -19.1355    0.0000 H   0  0  0  0  0  0  0  0  0  0  0  0
    1.0213  -20.3589    0.0000 O   0  0  0  0  0  0  0  0  0  0  0  0
   -4.5934  -20.9608    0.0000 O   0  0  0  0  0  0  0  0  0  0  0  0
   -5.2984  -21.3893    0.0000 C   0  0  0  0  0  0  0  0  0  0  0  0
   -6.0281  -20.9930    0.0000 O   0  0  0  0  0  0  0  0  0  0  0  0
   -5.2798  -22.2141    0.0000 C   0  0  0  0  0  0  0  0  0  0  0  0
    1.0381  -21.1837    0.0000 C   0  0  0  0  0  0  0  0  0  0  0  0
    1.7609  -21.5815    0.0000 C   0  0  0  0  0  0  0  0  0  0  0  0
    0.3322  -21.6107    0.0000 O   0  0  0  0  0  0  0  0  0  0  0  0
    1.7724  -22.4052    0.0000 C   0  0  0  0  0  0  0  0  0  0  0  0
    2.4943  -22.8029    0.0000 C   0  0  0  0  0  0  0  0  0  0  0  0
    3.2012  -22.3759    0.0000 C   0  0  0  0  0  0  0  0  0  0  0  0
    3.1816  -21.5468    0.0000 C   0  0  0  0  0  0  0  0  0  0  0  0
    2.4592  -21.1528    0.0000 C   0  0  0  0  0  0  0  0  0  0  0  0
    3.8860  -21.1173    0.0000 C   0  0  0  0  0  0  0  0  0  0  0  0
    4.6101  -21.5126    0.0000 O   0  0  0  0  0  0  0  0  0  0  0  0
    5.3145  -21.0831    0.0000 N   0  0  0  0  0  0  0  0  0  0  0  0
    5.2990  -20.2560    0.0000 O   0  0  0  0  0  0  0  0  0  0  0  0
    6.0429  -21.4761    0.0000 O   0  0  0  0  0  0  0  0  0  0  0  0
 14 18  1  6
  7  9  1  0
 13 19  1  6
  4  5  1  0
 15 20  1  1
 10  9  1  6
  3 21  1  0
 10 11  1  0
 21 22  1  0
  2  3  1  0
 22 23  2  0
  5  6  2  0
 22 24  1  0
 11 12  1  0
 20 25  1  0
 12 14  1  0
 25 26  1  0
 13 10  1  0
 25 27  2  0
 13 14  1  0
 26 28  2  0
  6  1  1  0
 28 29  1  0
  1  2  2  0
 29 30  2  0
  4  7  1  0
 30 31  1  0
  3  4  2  0
 31 32  2  0
 32 26  1  0
  7  8  2  0
 31 33  1  0
 14 15  1  0
 33 34  1  0
 15 16  1  0
 34 35  1  0
 16 17  1  0
 17 13  1  0
 35 36  2  0
 35 37  1  0
M  CHG  2  35   1  37  -1
M  END

> <chembl_id>
CHEMBL567091

> <chembl_pref_name>
None


$$$$

     RDKit          2D

 37 40  0  0  0  0  0  0  0  0999 V2000
    6.9947  -20.3185    0.0000 C   0  0  0  0  0  0  0  0  0  0  0  0
    7.0123  -21.1463    0.0000 C   0  0  0  0  0  0  0  0  0  0  0  0
    7.7373  -21.5451    0.0000 C   0  0  0  0  0  0  0  0  0  0  0  0
    8.4452  -21.1133    0.0000 C   0  0  0  0  0  0  0  0  0  0  0  0
    8.4235  -20.2826    0.0000 C   0  0  0  0  0  0  0  0  0  0  0  0
    7.6980  -19.8916    0.0000 C   0  0  0  0  0  0  0  0  0  0  0  0
    9.1704  -21.5108    0.0000 C   0  0  0  0  0  0  0  0  0  0  0  0
    9.1904  -22.3360    0.0000 O   0  0  0  0  0  0  0  0  0  0  0  0
    9.8757  -21.0787    0.0000 O   0  0  0  0  0  0  0  0  0  0  0  0
   10.6010  -21.4760    0.0000 C   0  0  0  0  0  0  0  0  0  0  0  0
   10.7048  -22.2929    0.0000 C   0  0  0  0  0  0  0  0  0  0  0  0
   11.5162  -22.4440    0.0000 O   0  0  0  0  0  0  0  0  0  0  0  0
   11.3452  -21.1178    0.0000 C   0  0  0  0  0  0  0  0  0  0  0  0
   11.9056  -21.7193    0.0000 C   0  0  0  0  0  0  0  0  0  0  0  0
   12.6511  -21.3710    0.0000 C   0  0  0  0  0  0  0  0  0  0  0  0
   12.5489  -20.5541    0.0000 C   0  0  0  0  0  0  0  0  0  0  0  0
   11.7401  -20.3962    0.0000 O   0  0  0  0  0  0  0  0  0  0  0  0
   12.5014  -22.2892    0.0000 H   0  0  0  0  0  0  0  0  0  0  0  0
   10.7397  -20.5449    0.0000 H   0  0  0  0  0  0  0  0  0  0  0  0
   13.3748  -21.7670    0.0000 O   0  0  0  0  0  0  0  0  0  0  0  0
    7.7558  -22.3705    0.0000 O   0  0  0  0  0  0  0  0  0  0  0  0
    7.0539  -22.7971    0.0000 C   0  0  0  0  0  0  0  0  0  0  0  0
    6.3293  -22.4025    0.0000 O   0  0  0  0  0  0  0  0  0  0  0  0
    7.0724  -23.6224    0.0000 C   0  0  0  0  0  0  0  0  0  0  0  0
   13.3916  -22.5924    0.0000 C   0  0  0  0  0  0  0  0  0  0  0  0
   14.1153  -22.9926    0.0000 C   0  0  0  0  0  0  0  0  0  0  0  0
   12.6846  -23.0217    0.0000 O   0  0  0  0  0  0  0  0  0  0  0  0
   14.1267  -23.8168    0.0000 C   0  0  0  0  0  0  0  0  0  0  0  0
   14.8496  -24.2128    0.0000 C   0  0  0  0  0  0  0  0  0  0  0  0
   15.5576  -23.7876    0.0000 C   0  0  0  0  0  0  0  0  0  0  0  0
   15.5381  -22.9581    0.0000 C   0  0  0  0  0  0  0  0  0  0  0  0
   14.8147  -22.5616    0.0000 C   0  0  0  0  0  0  0  0  0  0  0  0
   16.2818  -24.1828    0.0000 C   0  0  0  0  0  0  0  0  0  0  0  0
   16.9882  -23.7567    0.0000 O   0  0  0  0  0  0  0  0  0  0  0  0
   17.7083  -24.1518    0.0000 N   0  0  0  0  0  0  0  0  0  0  0  0
   18.4199  -23.7238    0.0000 O   0  0  0  0  0  0  0  0  0  0  0  0
   17.7355  -24.9793    0.0000 O   0  0  0  0  0  0  0  0  0  0  0  0
 14 18  1  6
  7  9  1  0
 13 19  1  6
  4  5  1  0
 15 20  1  1
 10  9  1  6
  3 21  1  0
 10 11  1  0
 21 22  1  0
  2  3  1  0
 22 23  2  0
  5  6  2  0
 22 24  1  0
 11 12  1  0
 20 25  1  0
 12 14  1  0
 25 26  1  0
 13 10  1  0
 25 27  2  0
 13 14  1  0
 26 28  2  0
  6  1  1  0
 28 29  1  0
  1  2  2  0
 29 30  2  0
  4  7  1  0
 30 31  1  0
  3  4  2  0
 31 32  2  0
 32 26  1  0
  7  8  2  0
 30 33  1  0
 14 15  1  0
 33 34  1  0
 15 16  1  0
 34 35  1  0
 16 17  1  0
 17 13  1  0
 35 36  2  0
 35 37  1  0
M  CHG  2  35   1  37  -1
M  END

> <chembl_id>
CHEMBL567296

> <chembl_pref_name>
None


$$$$

     RDKit          2D

 23 22  0  0  0  0  0  0  0  0999 V2000
   19.8052   -4.2758    0.0000 C   0  0  0  0  0  0  0  0  0  0  0  0
   19.8040   -5.0953    0.0000 C   0  0  0  0  0  0  0  0  0  0  0  0
   20.5121   -5.5043    0.0000 C   0  0  0  0  0  0  0  0  0  0  0  0
   21.2217   -5.0948    0.0000 C   0  0  0  0  0  0  0  0  0  0  0  0
   21.2189   -4.2722    0.0000 C   0  0  0  0  0  0  0  0  0  0  0  0
   20.5103   -3.8669    0.0000 C   0  0  0  0  0  0  0  0  0  0  0  0
   20.5078   -3.0497    0.0000 C   0  0  0  0  0  0  0  0  0  0  0  0
   21.2143   -2.6390    0.0000 O   0  0  0  0  0  0  0  0  0  0  0  0
   19.7989   -2.6432    0.0000 O   0  0  0  0  0  0  0  0  0  0  0  0
   21.9250   -3.8609    0.0000 O   0  0  0  0  0  0  0  0  0  0  0  0
   22.6343   -4.2668    0.0000 C   0  0  0  0  0  0  0  0  0  0  0  0
   23.3405   -3.8556    0.0000 C   0  0  0  0  0  0  0  0  0  0  0  0
   22.6374   -5.0840    0.0000 O   0  0  0  0  0  0  0  0  0  0  0  0
   15.8792   -5.7264    0.0000 N   0  0  0  0  0  0  0  0  0  0  0  0
   16.5882   -5.3178    0.0000 C   0  0  0  0  0  0  0  0  0  0  0  0
   17.2973   -6.5477    0.0000 O   0  0  0  0  0  0  0  0  0  0  0  0
   17.2973   -5.7264    0.0000 C   0  0  0  0  0  0  0  0  0  0  0  0
   16.5882   -4.4964    0.0000 C   0  0  0  0  0  0  0  0  0  0  0  0
   17.2973   -4.0878    0.0000 C   0  0  0  0  0  0  0  0  0  0  0  0
   17.2973   -3.2665    0.0000 C   0  0  0  0  0  0  0  0  0  0  0  0
   18.0106   -2.8579    0.0000 C   0  0  0  0  0  0  0  0  0  0  0  0
   18.0106   -2.0366    0.0000 N   0  0  0  0  0  0  0  0  0  0  0  0
   18.0106   -5.3178    0.0000 O   0  0  0  0  0  0  0  0  0  0  0  0
  1  2  2  0
  2  3  1  0
  3  4  2  0
  4  5  1  0
  5  6  2  0
  6  1  1  0
  6  7  1  0
  7  8  1  0
  7  9  2  0
  5 10  1  0
 10 11  1  0
 11 12  1  0
 11 13  2  0
 17 23  1  0
 14 15  1  0
 15 17  1  0
 17 16  2  0
 15 18  1  1
 18 19  1  0
 19 20  1  0
 20 21  1  0
 21 22  1  0
M  END

> <chembl_id>
CHEMBL2296002

> <chembl_pref_name>
None


$$$$

     RDKit          2D

 32 35  0  0  0  0  0  0  0  0999 V2000
    6.2888    1.2695    0.0000 C   0  0  0  0  0  0  0  0  0  0  0  0
    6.3064    0.4418    0.0000 C   0  0  0  0  0  0  0  0  0  0  0  0
    7.0314    0.0430    0.0000 C   0  0  0  0  0  0  0  0  0  0  0  0
    7.7392    0.4748    0.0000 C   0  0  0  0  0  0  0  0  0  0  0  0
    7.7176    1.3054    0.0000 C   0  0  0  0  0  0  0  0  0  0  0  0
    6.9922    1.6965    0.0000 C   0  0  0  0  0  0  0  0  0  0  0  0
    8.4644    0.0775    0.0000 C   0  0  0  0  0  0  0  0  0  0  0  0
    8.4844   -0.7477    0.0000 O   0  0  0  0  0  0  0  0  0  0  0  0
    9.1655    0.5094    0.0000 O   0  0  0  0  0  0  0  0  0  0  0  0
    9.8907    0.1121    0.0000 C   0  0  0  0  0  0  0  0  0  0  0  0
    9.9945   -0.7046    0.0000 C   0  0  0  0  0  0  0  0  0  0  0  0
   10.8059   -0.8558    0.0000 O   0  0  0  0  0  0  0  0  0  0  0  0
   10.6349    0.4703    0.0000 C   0  0  0  0  0  0  0  0  0  0  0  0
   11.1993   -0.1312    0.0000 C   0  0  0  0  0  0  0  0  0  0  0  0
   11.9448    0.2171    0.0000 C   0  0  0  0  0  0  0  0  0  0  0  0
   11.8425    1.0340    0.0000 C   0  0  0  0  0  0  0  0  0  0  0  0
   11.0340    1.1919    0.0000 O   0  0  0  0  0  0  0  0  0  0  0  0
   11.7950   -0.7010    0.0000 H   0  0  0  0  0  0  0  0  0  0  0  0
   10.0295    1.0431    0.0000 H   0  0  0  0  0  0  0  0  0  0  0  0
   12.6684   -0.1789    0.0000 O   0  0  0  0  0  0  0  0  0  0  0  0
    7.0499   -0.7823    0.0000 O   0  0  0  0  0  0  0  0  0  0  0  0
    6.3440   -1.2089    0.0000 C   0  0  0  0  0  0  0  0  0  0  0  0
    5.6194   -0.8143    0.0000 O   0  0  0  0  0  0  0  0  0  0  0  0
   13.3712    0.2504    0.0000 C   0  0  0  0  0  0  0  0  0  0  0  0
   13.3544    1.0757    0.0000 O   0  0  0  0  0  0  0  0  0  0  0  0
    6.3625   -2.0341    0.0000 C   0  0  0  0  0  0  0  0  0  0  0  0
   14.0903   -0.1458    0.0000 C   0  0  0  0  0  0  0  0  0  0  0  0
   14.1929   -0.9649    0.0000 C   0  0  0  0  0  0  0  0  0  0  0  0
   15.0036   -1.1192    0.0000 O   0  0  0  0  0  0  0  0  0  0  0  0
   15.4039   -0.3955    0.0000 N   0  0  0  0  0  0  0  0  0  0  0  0
   14.8378    0.2034    0.0000 C   0  0  0  0  0  0  0  0  0  0  0  0
   13.5939   -1.5309    0.0000 C   0  0  0  0  0  0  0  0  0  0  0  0
  7  8  2  0
 14 15  1  0
 15 16  1  0
 16 17  1  0
 17 13  1  0
 14 18  1  6
  7  9  1  0
 13 19  1  6
  4  5  1  0
 15 20  1  1
 10  9  1  6
  3 21  1  0
 10 11  1  0
 21 22  1  0
  2  3  1  0
 22 23  2  0
  5  6  2  0
 20 24  1  0
 11 12  1  0
 24 25  2  0
 12 14  1  0
 22 26  1  0
 27 28  2  0
 13 10  1  0
 13 14  1  0
  6  1  1  0
  1  2  2  0
  4  7  1  0
 28 29  1  0
 29 30  1  0
 30 31  2  0
 31 27  1  0
 24 27  1  0
  3  4  2  0
 28 32  1  0
M  END

> <chembl_id>
CHEMBL565842

> <chembl_pref_name>
None


$$$$

     RDKit          2D

 32 35  0  0  0  0  0  0  0  0999 V2000
   -4.5378   -3.9573    0.0000 C   0  0  0  0  0  0  0  0  0  0  0  0
   -4.5202   -4.7850    0.0000 C   0  0  0  0  0  0  0  0  0  0  0  0
   -3.7953   -5.1839    0.0000 C   0  0  0  0  0  0  0  0  0  0  0  0
   -3.0873   -4.7521    0.0000 C   0  0  0  0  0  0  0  0  0  0  0  0
   -3.1090   -3.9214    0.0000 C   0  0  0  0  0  0  0  0  0  0  0  0
   -3.8345   -3.5303    0.0000 C   0  0  0  0  0  0  0  0  0  0  0  0
   -2.3621   -5.1495    0.0000 C   0  0  0  0  0  0  0  0  0  0  0  0
   -2.3421   -5.9747    0.0000 O   0  0  0  0  0  0  0  0  0  0  0  0
   -1.6609   -4.7174    0.0000 O   0  0  0  0  0  0  0  0  0  0  0  0
   -0.9357   -5.1149    0.0000 C   0  0  0  0  0  0  0  0  0  0  0  0
   -0.8319   -5.9316    0.0000 C   0  0  0  0  0  0  0  0  0  0  0  0
   -0.0204   -6.0827    0.0000 O   0  0  0  0  0  0  0  0  0  0  0  0
   -0.1914   -4.7566    0.0000 C   0  0  0  0  0  0  0  0  0  0  0  0
    0.3730   -5.3582    0.0000 C   0  0  0  0  0  0  0  0  0  0  0  0
    1.1186   -5.0097    0.0000 C   0  0  0  0  0  0  0  0  0  0  0  0
    1.0163   -4.1928    0.0000 C   0  0  0  0  0  0  0  0  0  0  0  0
    0.2077   -4.0349    0.0000 O   0  0  0  0  0  0  0  0  0  0  0  0
    0.9689   -5.9280    0.0000 H   0  0  0  0  0  0  0  0  0  0  0  0
   -0.7969   -4.1837    0.0000 H   0  0  0  0  0  0  0  0  0  0  0  0
    1.8422   -5.4058    0.0000 O   0  0  0  0  0  0  0  0  0  0  0  0
   -3.7768   -6.0092    0.0000 O   0  0  0  0  0  0  0  0  0  0  0  0
   -4.4827   -6.4358    0.0000 C   0  0  0  0  0  0  0  0  0  0  0  0
   -5.2073   -6.0413    0.0000 O   0  0  0  0  0  0  0  0  0  0  0  0
    2.5451   -4.9765    0.0000 C   0  0  0  0  0  0  0  0  0  0  0  0
    2.5284   -4.1512    0.0000 O   0  0  0  0  0  0  0  0  0  0  0  0
   -4.4642   -7.2611    0.0000 C   0  0  0  0  0  0  0  0  0  0  0  0
    3.2643   -5.3728    0.0000 C   0  0  0  0  0  0  0  0  0  0  0  0
    3.3668   -6.1918    0.0000 C   0  0  0  0  0  0  0  0  0  0  0  0
    4.1777   -6.3461    0.0000 N   0  0  0  0  0  0  0  0  0  0  0  0
    4.5780   -5.6225    0.0000 N   0  0  0  0  0  0  0  0  0  0  0  0
    4.0118   -5.0235    0.0000 S   0  0  0  0  0  0  0  0  0  0  0  0
    2.7678   -6.7580    0.0000 C   0  0  0  0  0  0  0  0  0  0  0  0
  7  8  2  0
 14 15  1  0
 15 16  1  0
 16 17  1  0
 17 13  1  0
 14 18  1  6
  7  9  1  0
 13 19  1  6
  4  5  1  0
 15 20  1  1
 10  9  1  6
  3 21  1  0
 10 11  1  0
 21 22  1  0
  2  3  1  0
 22 23  2  0
  5  6  2  0
 20 24  1  0
 11 12  1  0
 24 25  2  0
 12 14  1  0
 22 26  1  0
 27 28  2  0
 13 10  1  0
 13 14  1  0
  6  1  1  0
  1  2  2  0
  4  7  1  0
 28 29  1  0
 29 30  2  0
 30 31  1  0
 31 27  1  0
 24 27  1  0
  3  4  2  0
 28 32  1  0
M  END

> <chembl_id>
CHEMBL586044

> <chembl_pref_name>
None


$$$$

     RDKit          2D

 32 35  0  0  0  0  0  0  0  0999 V2000
    6.1902   -4.1443    0.0000 C   0  0  0  0  0  0  0  0  0  0  0  0
    6.2079   -4.9721    0.0000 C   0  0  0  0  0  0  0  0  0  0  0  0
    6.9329   -5.3710    0.0000 C   0  0  0  0  0  0  0  0  0  0  0  0
    7.6408   -4.9392    0.0000 C   0  0  0  0  0  0  0  0  0  0  0  0
    7.6192   -4.1084    0.0000 C   0  0  0  0  0  0  0  0  0  0  0  0
    6.8937   -3.7173    0.0000 C   0  0  0  0  0  0  0  0  0  0  0  0
    8.3662   -5.3365    0.0000 C   0  0  0  0  0  0  0  0  0  0  0  0
    8.3862   -6.1619    0.0000 O   0  0  0  0  0  0  0  0  0  0  0  0
    9.0673   -4.9045    0.0000 O   0  0  0  0  0  0  0  0  0  0  0  0
    9.7927   -5.3019    0.0000 C   0  0  0  0  0  0  0  0  0  0  0  0
    9.8965   -6.1187    0.0000 C   0  0  0  0  0  0  0  0  0  0  0  0
   10.7080   -6.2699    0.0000 O   0  0  0  0  0  0  0  0  0  0  0  0
   10.5370   -4.9436    0.0000 C   0  0  0  0  0  0  0  0  0  0  0  0
   11.1015   -5.5452    0.0000 C   0  0  0  0  0  0  0  0  0  0  0  0
   11.8471   -5.1968    0.0000 C   0  0  0  0  0  0  0  0  0  0  0  0
   11.7448   -4.3798    0.0000 C   0  0  0  0  0  0  0  0  0  0  0  0
   10.9361   -4.2219    0.0000 O   0  0  0  0  0  0  0  0  0  0  0  0
   11.6973   -6.1152    0.0000 H   0  0  0  0  0  0  0  0  0  0  0  0
    9.9315   -4.3707    0.0000 H   0  0  0  0  0  0  0  0  0  0  0  0
   12.5708   -5.5929    0.0000 O   0  0  0  0  0  0  0  0  0  0  0  0
    6.9514   -6.1964    0.0000 O   0  0  0  0  0  0  0  0  0  0  0  0
    6.2454   -6.6231    0.0000 C   0  0  0  0  0  0  0  0  0  0  0  0
    5.5207   -6.2285    0.0000 O   0  0  0  0  0  0  0  0  0  0  0  0
   13.2779   -5.1636    0.0000 C   0  0  0  0  0  0  0  0  0  0  0  0
   13.2570   -4.3382    0.0000 O   0  0  0  0  0  0  0  0  0  0  0  0
    6.2639   -7.4484    0.0000 C   0  0  0  0  0  0  0  0  0  0  0  0
   13.9930   -5.5599    0.0000 C   0  0  0  0  0  0  0  0  0  0  0  0
   14.1004   -6.3690    0.0000 N   0  0  0  0  0  0  0  0  0  0  0  0
   14.9016   -6.5209    0.0000 N   0  0  0  0  0  0  0  0  0  0  0  0
   15.2979   -5.8017    0.0000 C   0  0  0  0  0  0  0  0  0  0  0  0
   14.7348   -5.2079    0.0000 C   0  0  0  0  0  0  0  0  0  0  0  0
   13.4982   -6.9363    0.0000 C   0  0  0  0  0  0  0  0  0  0  0  0
  7  8  2  0
 14 15  1  0
 15 16  1  0
 16 17  1  0
 17 13  1  0
 14 18  1  6
  7  9  1  0
 13 19  1  6
  4  5  1  0
 15 20  1  1
 10  9  1  6
  3 21  1  0
 10 11  1  0
 21 22  1  0
  2  3  1  0
 22 23  2  0
  5  6  2  0
 20 24  1  0
 11 12  1  0
 24 25  2  0
 12 14  1  0
 22 26  1  0
 13 10  1  0
 24 27  1  0
 27 28  1  0
 13 14  1  0
  6  1  1  0
  1  2  2  0
  4  7  1  0
 28 29  1  0
 29 30  2  0
 30 31  1  0
 31 27  2  0
  3  4  2  0
 28 32  1  0
M  END

> <chembl_id>
CHEMBL567525

> <chembl_pref_name>
None


$$$$

     RDKit          2D

 31 33  0  0  0  0  0  0  0  0999 V2000
   -5.6139    0.0292    0.0000 C   0  0  0  0  0  0  0  0  0  0  0  0
   -5.6151   -0.7982    0.0000 C   0  0  0  0  0  0  0  0  0  0  0  0
   -4.9003   -1.2110    0.0000 C   0  0  0  0  0  0  0  0  0  0  0  0
   -4.1838   -0.7977    0.0000 C   0  0  0  0  0  0  0  0  0  0  0  0
   -4.1867    0.0328    0.0000 C   0  0  0  0  0  0  0  0  0  0  0  0
   -4.9021    0.4420    0.0000 C   0  0  0  0  0  0  0  0  0  0  0  0
   -3.4687   -1.2091    0.0000 O   0  0  0  0  0  0  0  0  0  0  0  0
   -3.4674   -2.0341    0.0000 C   0  0  0  0  0  0  0  0  0  0  0  0
   -2.7523   -2.4454    0.0000 C   0  0  0  0  0  0  0  0  0  0  0  0
   -4.1812   -2.4477    0.0000 O   0  0  0  0  0  0  0  0  0  0  0  0
   -2.7510   -3.2704    0.0000 C   0  0  0  0  0  0  0  0  0  0  0  0
   -2.0359   -3.6818    0.0000 C   0  0  0  0  0  0  0  0  0  0  0  0
   -2.0346   -4.5068    0.0000 O   0  0  0  0  0  0  0  0  0  0  0  0
   -1.3195   -4.9182    0.0000 N   0  0  0  0  0  0  0  0  0  0  0  0
   -0.6035   -4.5053    0.0000 O   0  0  0  0  0  0  0  0  0  0  0  0
   -1.3161   -5.7439    0.0000 O   0  0  0  0  0  0  0  0  0  0  0  0
   -3.4738    0.4480    0.0000 C   0  0  0  0  0  0  0  0  0  0  0  0
   -2.7578    0.0382    0.0000 O   0  0  0  0  0  0  0  0  0  0  0  0
   -3.4769    1.2730    0.0000 O   0  0  0  0  0  0  0  0  0  0  0  0
   -2.0448    0.4534    0.0000 C   0  0  0  0  0  0  0  0  0  0  0  0
   -1.3304    0.0402    0.0000 C   0  0  0  0  0  0  0  0  0  0  0  0
   -0.6180    0.4547    0.0000 C   0  0  0  0  0  0  0  0  0  0  0  0
   -0.6207    1.2806    0.0000 C   0  0  0  0  0  0  0  0  0  0  0  0
   -1.3417    1.6902    0.0000 C   0  0  0  0  0  0  0  0  0  0  0  0
   -2.0512    1.2733    0.0000 C   0  0  0  0  0  0  0  0  0  0  0  0
    0.0911    1.6950    0.0000 C   0  0  0  0  0  0  0  0  0  0  0  0
    0.7558    1.2063    0.0000 S   0  0  0  0  0  0  0  0  0  0  0  0
    1.4260    1.6874    0.0000 S   0  0  0  0  0  0  0  0  0  0  0  0
    1.1756    2.4735    0.0000 C   0  0  0  0  0  0  0  0  0  0  0  0
    0.3506    2.4781    0.0000 C   0  0  0  0  0  0  0  0  0  0  0  0
    1.6643    3.1382    0.0000 S   0  0  0  0  0  0  0  0  0  0  0  0
 14 15  2  0
 14 16  1  0
  7  8  1  0
  5 17  1  0
 17 18  1  0
  8  9  1  0
 17 19  2  0
  4  5  1  0
 18 20  1  0
  8 10  2  0
 20 21  2  0
  2  3  1  0
 21 22  1  0
  9 11  1  0
 22 23  2  0
  5  6  2  0
 23 24  1  0
 11 12  1  0
 24 25  2  0
 25 20  1  0
 26 27  1  0
  6  1  1  0
 12 13  1  0
  1  2  2  0
 13 14  1  0
  4  7  1  0
 27 28  1  0
 28 29  1  0
 29 30  1  0
 30 26  2  0
 23 26  1  0
  3  4  2  0
 29 31  2  0
M  CHG  2  14   1  16  -1
M  END

> <chembl_id>
CHEMBL2047532

> <chembl_pref_name>
None


$$$$

     RDKit          2D

 34 37  0  0  0  0  0  0  0  0999 V2000
   -4.4557    1.6806    0.0000 C   0  0  0  0  0  0  0  0  0  0  0  0
   -4.4381    0.8527    0.0000 C   0  0  0  0  0  0  0  0  0  0  0  0
   -3.7130    0.4538    0.0000 C   0  0  0  0  0  0  0  0  0  0  0  0
   -3.0050    0.8857    0.0000 C   0  0  0  0  0  0  0  0  0  0  0  0
   -3.0267    1.7166    0.0000 C   0  0  0  0  0  0  0  0  0  0  0  0
   -3.7523    2.1077    0.0000 C   0  0  0  0  0  0  0  0  0  0  0  0
   -2.2796    0.4882    0.0000 C   0  0  0  0  0  0  0  0  0  0  0  0
   -2.2596   -0.3372    0.0000 O   0  0  0  0  0  0  0  0  0  0  0  0
   -1.5742    0.9203    0.0000 O   0  0  0  0  0  0  0  0  0  0  0  0
   -0.8487    0.5271    0.0000 C   0  0  0  0  0  0  0  0  0  0  0  0
   -0.7449   -0.2900    0.0000 C   0  0  0  0  0  0  0  0  0  0  0  0
    0.0667   -0.4452    0.0000 O   0  0  0  0  0  0  0  0  0  0  0  0
   -0.1044    0.8812    0.0000 C   0  0  0  0  0  0  0  0  0  0  0  0
    0.4562    0.2795    0.0000 C   0  0  0  0  0  0  0  0  0  0  0  0
    1.2018    0.6321    0.0000 C   0  0  0  0  0  0  0  0  0  0  0  0
    1.0996    1.4492    0.0000 C   0  0  0  0  0  0  0  0  0  0  0  0
    0.2907    1.6031    0.0000 O   0  0  0  0  0  0  0  0  0  0  0  0
    1.0521   -0.2863    0.0000 H   0  0  0  0  0  0  0  0  0  0  0  0
   -0.7099    1.4584    0.0000 H   0  0  0  0  0  0  0  0  0  0  0  0
    1.9257    0.2318    0.0000 O   0  0  0  0  0  0  0  0  0  0  0  0
   -3.6945   -0.3717    0.0000 O   0  0  0  0  0  0  0  0  0  0  0  0
   -4.4007   -0.7984    0.0000 C   0  0  0  0  0  0  0  0  0  0  0  0
   -5.1212   -0.4038    0.0000 O   0  0  0  0  0  0  0  0  0  0  0  0
    2.6327    0.6612    0.0000 C   0  0  0  0  0  0  0  0  0  0  0  0
    3.3566    0.2609    0.0000 C   0  0  0  0  0  0  0  0  0  0  0  0
    2.6160    1.4867    0.0000 O   0  0  0  0  0  0  0  0  0  0  0  0
    3.3707   -0.5652    0.0000 C   0  0  0  0  0  0  0  0  0  0  0  0
    4.0938   -0.9614    0.0000 C   0  0  0  0  0  0  0  0  0  0  0  0
    4.8018   -0.5360    0.0000 N   0  0  0  0  0  0  0  0  0  0  0  0
    4.7823    0.2937    0.0000 C   0  0  0  0  0  0  0  0  0  0  0  0
    4.0588    0.6902    0.0000 C   0  0  0  0  0  0  0  0  0  0  0  0
   -4.3822   -1.6239    0.0000 C   0  0  0  0  0  0  0  0  0  0  0  0
    4.1101   -1.7869    0.0000 Cl  0  0  0  0  0  0  0  0  0  0  0  0
    5.4837    0.7255    0.0000 C   0  0  0  0  0  0  0  0  0  0  0  0
 15 16  1  0
 16 17  1  0
 17 13  1  0
 14 18  1  6
  7  9  1  0
 13 19  1  6
  4  5  1  0
 15 20  1  1
 10  9  1  6
  3 21  1  0
 10 11  1  0
 21 22  1  0
  2  3  1  0
 22 23  2  0
  5  6  2  0
 20 24  1  0
 11 12  1  0
 24 25  1  0
 12 14  1  0
 24 26  2  0
 13 10  1  0
 25 27  2  0
 13 14  1  0
 27 28  1  0
  6  1  1  0
 28 29  2  0
  1  2  2  0
 29 30  1  0
  4  7  1  0
 30 31  2  0
 31 25  1  0
  3  4  2  0
 22 32  1  0
  7  8  2  0
 28 33  1  0
 14 15  1  0
 30 34  1  0
M  END

> <chembl_id>
CHEMBL566241

> <chembl_pref_name>
None


$$$$

     RDKit          2D

 24 25  0  0  0  0  0  0  0  0999 V2000
    8.6527    0.2459    0.0000 C   0  0  0  0  0  0  0  0  0  0  0  0
    8.6516   -0.5815    0.0000 C   0  0  0  0  0  0  0  0  0  0  0  0
    9.3664   -0.9944    0.0000 C   0  0  0  0  0  0  0  0  0  0  0  0
   10.0828   -0.5810    0.0000 C   0  0  0  0  0  0  0  0  0  0  0  0
   10.0800    0.2495    0.0000 C   0  0  0  0  0  0  0  0  0  0  0  0
    9.3646    0.6586    0.0000 C   0  0  0  0  0  0  0  0  0  0  0  0
   10.7929    0.6647    0.0000 C   0  0  0  0  0  0  0  0  0  0  0  0
   11.5089    0.2549    0.0000 O   0  0  0  0  0  0  0  0  0  0  0  0
   10.7898    1.4897    0.0000 O   0  0  0  0  0  0  0  0  0  0  0  0
   10.7980   -0.9924    0.0000 O   0  0  0  0  0  0  0  0  0  0  0  0
   10.7992   -1.8174    0.0000 C   0  0  0  0  0  0  0  0  0  0  0  0
   11.5144   -2.2288    0.0000 O   0  0  0  0  0  0  0  0  0  0  0  0
   10.0854   -2.2310    0.0000 C   0  0  0  0  0  0  0  0  0  0  0  0
   12.2218    0.6701    0.0000 C   0  0  0  0  0  0  0  0  0  0  0  0
   12.9362    0.2568    0.0000 C   0  0  0  0  0  0  0  0  0  0  0  0
   13.6487    0.6713    0.0000 C   0  0  0  0  0  0  0  0  0  0  0  0
   13.6460    1.4972    0.0000 C   0  0  0  0  0  0  0  0  0  0  0  0
   12.9250    1.9068    0.0000 C   0  0  0  0  0  0  0  0  0  0  0  0
   12.2155    1.4900    0.0000 C   0  0  0  0  0  0  0  0  0  0  0  0
   14.3584    1.9134    0.0000 C   0  0  0  0  0  0  0  0  0  0  0  0
   15.0749    1.5045    0.0000 O   0  0  0  0  0  0  0  0  0  0  0  0
   15.7873    1.9206    0.0000 N   0  0  0  0  0  0  0  0  0  0  0  0
   15.7833    2.7500    0.0000 O   0  0  0  0  0  0  0  0  0  0  0  0
   16.5040    1.5161    0.0000 O   0  0  0  0  0  0  0  0  0  0  0  0
 11 12  2  0
  6  1  1  0
 11 13  1  0
  1  2  2  0
  8 14  1  0
  5  7  1  0
 14 15  2  0
  3  4  2  0
 15 16  1  0
  7  8  1  0
 16 17  2  0
 17 18  1  0
  7  9  2  0
 18 19  2  0
 19 14  1  0
  4  5  1  0
 17 20  1  0
  4 10  1  0
 20 21  1  0
  2  3  1  0
 21 22  1  0
 10 11  1  0
  5  6  2  0
 22 23  2  0
 22 24  1  0
M  CHG  2  22   1  24  -1
M  END

> <chembl_id>
CHEMBL228226

> <chembl_pref_name>
None


$$$$
