
     RDKit          2D

 30 34  0  0  0  0  0  0  0  0999 V2000
   -1.6000    0.4750    0.0000 C   0  0  0  0  0  0  0  0  0  0  0  0
   -1.8625   -0.3917    0.0000 C   0  0  0  0  0  0  0  0  0  0  0  0
   -2.2458    1.1625    0.0000 N   0  0  0  0  0  0  0  0  0  0  0  0
   -3.4208    0.0250    0.0000 N   0  0  0  0  0  0  0  0  0  0  0  0
   -3.1458    0.9375    0.0000 C   0  0  0  0  0  0  0  0  0  0  0  0
   -2.7833   -0.6292    0.0000 C   0  0  0  0  0  0  0  0  0  0  0  0
   -0.6625    0.4625    0.0000 N   0  0  0  0  0  0  0  0  0  0  0  0
   -1.1208   -0.9417    0.0000 N   0  0  0  0  0  0  0  0  0  0  0  0
    2.8667   -0.3042    0.0000 C   0  0  0  0  0  0  0  0  0  0  0  0
   -0.4250   -0.3917    0.0000 C   0  0  0  0  0  0  0  0  0  0  0  0
    3.6667   -0.6667    0.0000 C   0  0  0  0  0  0  0  0  0  0  0  0
    4.2417    0.0750    0.0000 N   0  0  0  0  0  0  0  0  0  0  0  0
    2.8417    0.5500    0.0000 C   0  0  0  0  0  0  0  0  0  0  0  0
    0.4792   -1.8292    0.0000 N   0  0  0  0  0  0  0  0  0  0  0  0
   -3.7458    1.6750    0.0000 O   0  0  0  0  0  0  0  0  0  0  0  0
    3.7167    0.8125    0.0000 C   0  0  0  0  0  0  0  0  0  0  0  0
   -3.0833   -1.5167    0.0000 O   0  0  0  0  0  0  0  0  0  0  0  0
    2.0292   -0.8417    0.0000 C   0  0  0  0  0  0  0  0  0  0  0  0
   -1.1208   -1.8792    0.0000 C   0  0  0  0  0  0  0  0  0  0  0  0
   -2.0083    2.0833    0.0000 C   0  0  0  0  0  0  0  0  0  0  0  0
   -4.3458   -0.2542    0.0000 C   0  0  0  0  0  0  0  0  0  0  0  0
    2.0292   -1.7667    0.0000 C   0  0  0  0  0  0  0  0  0  0  0  0
    1.1917   -0.4292    0.0000 C   0  0  0  0  0  0  0  0  0  0  0  0
   -0.2750   -2.3292    0.0000 C   0  0  0  0  0  0  0  0  0  0  0  0
    1.2792   -2.2667    0.0000 C   0  0  0  0  0  0  0  0  0  0  0  0
    0.4667   -0.9667    0.0000 C   0  0  0  0  0  0  0  0  0  0  0  0
    2.1542    1.2000    0.0000 C   0  0  0  0  0  0  0  0  0  0  0  0
    3.9542    1.7000    0.0000 C   0  0  0  0  0  0  0  0  0  0  0  0
    2.3792    2.0833    0.0000 C   0  0  0  0  0  0  0  0  0  0  0  0
    3.2917    2.3375    0.0000 C   0  0  0  0  0  0  0  0  0  0  0  0
  2  1  2  0
  3  1  1  0
  4  5  1  0
  5  3  1  0
  6  2  1  0
  7  1  1  0
  8  2  1  0
  9 18  1  0
 10  7  2  0
 11  9  2  0
 12 11  1  0
 13  9  1  0
 14 24  1  0
 15  5  2  0
 16 13  2  0
 17  6  2  0
 18 23  1  0
 19  8  1  0
 20  3  1  0
 21  4  1  0
 22 25  1  0
 23 26  1  0
 24 19  1  0
 25 14  1  0
 26 14  1  0
 27 13  1  0
 28 16  1  0
 29 27  2  0
 30 29  1  0
  8 10  1  0
  6  4  1  0
 22 18  1  0
 16 12  1  0
 28 30  2  0
M  END

> <chembl_id>
CHEMBL2104760

> <chembl_pref_name>
TAMERIDONE

$$$$

     RDKit          2D

  9  9  0  0  0  0  0  0  0  0999 V2000
    7.7000   -7.4000    0.0000 N   0  0  0  0  0  0  0  0  0  0  0  0
    6.6667   -7.4000    0.0000 C   0  0  0  0  0  0  0  0  0  0  0  0
    6.3500   -6.4042    0.0000 C   0  0  0  0  0  0  0  0  0  0  0  0
    8.0167   -6.4042    0.0000 C   0  0  0  0  0  0  0  0  0  0  0  0
    7.1750   -5.8000    0.0000 S   0  0  0  0  0  0  0  0  0  0  0  0
    5.3500   -6.0625    0.0000 C   0  0  0  0  0  0  0  0  0  0  0  0
    4.1542   -4.7000    0.0000 Cl  0  0  0  0  0  0  0  0  0  0  0  0
    6.0625   -8.2500    0.0000 C   0  0  0  0  0  0  0  0  0  0  0  0
    5.1375   -5.0375    0.0000 C   0  0  0  0  0  0  0  0  0  0  0  0
  2  1  1  0
  3  2  2  0
  4  1  2  0
  5  4  1  0
  6  3  1  0
  7  9  1  0
  8  2  1  0
  9  6  1  0
  3  5  1  0
M  END

> <chembl_id>
CHEMBL315795

> <chembl_pref_name>
CLOMETHIAZOLE

$$$$

     RDKit          2D

 24 26  0  0  0  0  0  0  0  0999 V2000
   -1.8458   -1.2667    0.0000 N   0  0  0  0  0  0  0  0  0  0  0  0
   -1.2333   -1.6292    0.0000 C   0  0  0  0  0  0  0  0  0  0  0  0
   -1.8458   -2.6917    0.0000 S   0  0  0  0  0  0  0  0  0  0  0  0
   -2.4583   -1.6292    0.0000 C   0  0  0  0  0  0  0  0  0  0  0  0
   -1.2333   -2.3375    0.0000 C   0  0  0  0  0  0  0  0  0  0  0  0
   -1.8458   -0.5625    0.0000 C   0  0  0  0  0  0  0  0  0  0  0  0
   -2.4583   -2.3375    0.0000 C   0  0  0  0  0  0  0  0  0  0  0  0
   -0.6208   -1.2750    0.0000 C   0  0  0  0  0  0  0  0  0  0  0  0
   -0.0083   -1.6250    0.0000 C   0  0  0  0  0  0  0  0  0  0  0  0
   -1.2333   -0.2042    0.0000 C   0  0  0  0  0  0  0  0  0  0  0  0
    0.6042   -1.2667    0.0000 C   0  0  0  0  0  0  0  0  0  0  0  0
   -1.2375    0.5000    0.0000 N   0  0  0  0  0  0  0  0  0  0  0  0
   -0.6208   -2.6917    0.0000 C   0  0  0  0  0  0  0  0  0  0  0  0
   -0.0083   -2.3375    0.0000 C   0  0  0  0  0  0  0  0  0  0  0  0
    0.6042   -0.5625    0.0000 O   0  0  0  0  0  0  0  0  0  0  0  0
   -3.0708   -1.2750    0.0000 C   0  0  0  0  0  0  0  0  0  0  0  0
   -3.0708   -2.6917    0.0000 C   0  0  0  0  0  0  0  0  0  0  0  0
    1.2167   -1.6167    0.0000 C   0  0  0  0  0  0  0  0  0  0  0  0
   -0.6250    0.8583    0.0000 C   0  0  0  0  0  0  0  0  0  0  0  0
   -1.8500    0.8583    0.0000 C   0  0  0  0  0  0  0  0  0  0  0  0
   -0.6208   -0.5625    0.0000 C   0  0  0  0  0  0  0  0  0  0  0  0
    1.8250   -1.2500    0.0000 C   0  0  0  0  0  0  0  0  0  0  0  0
   -3.6833   -1.6292    0.0000 C   0  0  0  0  0  0  0  0  0  0  0  0
   -3.6833   -2.3375    0.0000 C   0  0  0  0  0  0  0  0  0  0  0  0
  2  1  1  0
  3  7  1  0
  4  1  1  0
  5  2  2  0
  6  1  1  0
  7  4  1  0
  8  2  1  0
  9  8  2  0
 10  6  1  0
 11  9  1  0
 12 10  1  0
 13  5  1  0
 14  9  1  0
 15 11  2  0
 16  4  2  0
 17  7  2  0
 18 11  1  0
 19 12  1  0
 20 12  1  0
 21 10  1  0
 22 18  1  0
 23 16  1  0
 24 23  2  0
  3  5  1  0
 17 24  1  0
 14 13  2  0
M  END

> <chembl_id>
CHEMBL1201210

> <chembl_pref_name>
PROPIOMAZINE

$$$$

     RDKit          2D

 34 38  0  0  1  0  0  0  0  0999 V2000
    4.4625   -4.7792    0.0000 C   0  0  0  0  0  0  0  0  0  0  0  0
    3.8417   -4.9667    0.0000 N   0  0  0  0  0  0  0  0  0  0  0  0
    4.4625   -4.0917    0.0000 C   0  0  0  0  0  0  0  0  0  0  0  0
    5.6167   -6.7875    0.0000 C   0  0  0  0  0  0  0  0  0  0  0  0
    5.6375   -6.1250    0.0000 C   0  0  0  0  0  0  0  0  0  0  0  0
    5.0375   -5.1375    0.0000 C   0  0  0  0  0  0  0  0  0  0  0  0
    5.6500   -4.8250    0.0000 N   0  0  0  0  0  0  0  0  0  0  0  0
    3.4042   -4.3792    0.0000 C   0  0  0  0  0  0  0  0  0  0  0  0
    3.8125   -3.8292    0.0000 C   0  0  0  0  0  0  0  0  0  0  0  0
    6.1792   -5.8042    0.0000 C   0  0  0  0  0  0  0  0  0  0  0  0
    5.0375   -5.8000    0.0000 C   0  0  0  0  0  0  0  0  0  0  0  0
    6.2250   -7.1542    0.0000 C   0  0  0  0  0  0  0  0  0  0  0  0
    4.9417   -7.3000    0.0000 C   0  0  0  0  0  0  0  0  0  0  0  0
    6.1792   -5.1375    0.0000 C   0  0  0  0  0  0  0  0  0  0  0  0
    6.8000   -6.8542    0.0000 C   0  0  0  0  0  0  0  0  0  0  0  0
    5.0625   -3.7792    0.0000 C   0  0  0  0  0  0  0  0  0  0  0  0
    6.7917   -6.1292    0.0000 C   0  0  0  0  0  0  0  0  0  0  0  0
    2.7417   -4.2875    0.0000 C   0  0  0  0  0  0  0  0  0  0  0  0
    3.5625   -3.2000    0.0000 C   0  0  0  0  0  0  0  0  0  0  0  0
    5.6500   -4.1292    0.0000 C   0  0  0  0  0  0  0  0  0  0  0  0
    4.3417   -7.1500    0.0000 O   0  0  0  0  0  0  0  0  0  0  0  0
    2.4417   -3.6542    0.0000 C   0  0  0  0  0  0  0  0  0  0  0  0
    2.8750   -3.1125    0.0000 C   0  0  0  0  0  0  0  0  0  0  0  0
    6.3000   -7.9167    0.0000 O   0  0  0  0  0  0  0  0  0  0  0  0
    4.8542   -8.0292    0.0000 O   0  0  0  0  0  0  0  0  0  0  0  0
    7.6167   -7.3250    0.0000 O   0  0  0  0  0  0  0  0  0  0  0  0
    1.7542   -3.5792    0.0000 O   0  0  0  0  0  0  0  0  0  0  0  0
    6.7042   -8.2917    0.0000 C   0  0  0  0  0  0  0  0  0  0  0  0
    4.1500   -8.0500    0.0000 C   0  0  0  0  0  0  0  0  0  0  0  0
    7.4542   -8.0292    0.0000 C   0  0  0  0  0  0  0  0  0  0  0  0
    1.4667   -4.2125    0.0000 C   0  0  0  0  0  0  0  0  0  0  0  0
    7.0361   -5.2888    0.0000 H   0  0  0  0  0  0  0  0  0  0  0  0
    4.1632   -5.6229    0.0000 H   0  0  0  0  0  0  0  0  0  0  0  0
    4.7704   -6.6232    0.0000 H   0  0  0  0  0  0  0  0  0  0  0  0
  2  1  1  0
  3  1  2  0
  4  5  1  0
  5 11  1  0
  6  1  1  0
  7  6  1  0
  8  2  1  0
  9  3  1  0
 10  5  1  0
 11  6  1  0
 12  4  1  0
  4 13  1  1
 14  7  1  0
 15 17  1  0
 16  3  1  0
 17 10  1  0
 18  8  2  0
 19  9  2  0
 20  7  1  0
 21 13  2  0
 22 18  1  0
 23 19  1  0
 12 24  1  6
 25 13  1  0
 15 26  1  6
 27 22  1  0
 28 24  1  0
 29 25  1  0
 30 26  1  0
 31 27  1  0
  9  8  1  0
 16 20  1  0
 14 10  1  0
 23 22  2  0
 12 15  1  0
 10 32  1  6
  6 33  1  1
  5 34  1  6
M  END

> <chembl_id>
CHEMBL2110987

> <chembl_pref_name>
METOSERPATE

$$$$

     RDKit          2D

 16 16  0  0  0  0  0  0  0  0999 V2000
    7.1094   -3.0218    0.0000 N   0  0  0  0  0  0  0  0  0  0  0  0
    7.8418   -2.6098    0.0000 C   0  0  0  0  0  0  0  0  0  0  0  0
    7.1171   -1.3716    0.0000 C   0  0  0  0  0  0  0  0  0  0  0  0
    7.8297   -1.7874    0.0000 C   0  0  0  0  0  0  0  0  0  0  0  0
    6.4132   -1.7761    0.0000 N   0  0  0  0  0  0  0  0  0  0  0  0
    6.3968   -2.6060    0.0000 C   0  0  0  0  0  0  0  0  0  0  0  0
    8.5435   -3.0193    0.0000 O   0  0  0  0  0  0  0  0  0  0  0  0
    7.1133   -0.5349    0.0000 O   0  0  0  0  0  0  0  0  0  0  0  0
    5.6708   -3.0072    0.0000 O   0  0  0  0  0  0  0  0  0  0  0  0
    8.6510   -1.8182    0.0000 C   0  0  0  0  0  0  0  0  0  0  0  0
    7.8096   -0.9702    0.0000 C   0  0  0  0  0  0  0  0  0  0  0  0
    9.0711   -1.0984    0.0000 C   0  0  0  0  0  0  0  0  0  0  0  0
    9.0627   -2.5263    0.0000 C   0  0  0  0  0  0  0  0  0  0  0  0
    8.5088   -0.5243    0.0000 C   0  0  0  0  0  0  0  0  0  0  0  0
    9.9051   -1.1075    0.0000 C   0  0  0  0  0  0  0  0  0  0  0  0
   10.3026   -1.8316    0.0000 C   0  0  0  0  0  0  0  0  0  0  0  0
  2  1  1  0
  3  5  1  0
  4  2  1  0
  5  6  1  0
  6  1  1  0
  7  2  2  0
  8  3  2  0
  9  6  2  0
 10  4  1  0
 11  4  1  0
 12 10  1  0
 13 10  1  0
 14 11  1  0
 15 12  1  0
 16 15  1  0
  4  3  1  0
M  END

> <chembl_id>
CHEMBL448

> <chembl_pref_name>
PENTOBARBITAL

$$$$

     RDKit          2D

 16 16  0  0  0  0  0  0  0  0999 V2000
    2.3667    0.0000    0.0000 N   0  0  0  0  0  0  0  0  0  0  0  0
   -0.1458    0.0000    0.0000 C   0  0  0  0  0  0  0  0  0  0  0  0
    1.1042    2.1875    0.0000 N   0  0  0  0  0  0  0  0  0  0  0  0
    1.1042   -0.7292    0.0000 C   0  0  0  0  0  0  0  0  0  0  0  0
    2.3667    1.4625    0.0000 C   0  0  0  0  0  0  0  0  0  0  0  0
   -0.1458    1.4625    0.0000 C   0  0  0  0  0  0  0  0  0  0  0  0
   -1.4875    0.0208    0.0000 C   0  0  0  0  0  0  0  0  0  0  0  0
    3.6167    2.1875    0.0000 O   0  0  0  0  0  0  0  0  0  0  0  0
    1.1042   -2.1542    0.0000 O   0  0  0  0  0  0  0  0  0  0  0  0
   -1.3958    2.1875    0.0000 O   0  0  0  0  0  0  0  0  0  0  0  0
   -1.2125   -1.0042    0.0000 C   0  0  0  0  0  0  0  0  0  0  0  0
   -2.2000   -1.3042    0.0000 C   0  0  0  0  0  0  0  0  0  0  0  0
   -3.6333   -1.3042    0.0000 C   0  0  0  0  0  0  0  0  0  0  0  0
   -1.2125   -2.2167    0.0000 C   0  0  0  0  0  0  0  0  0  0  0  0
   -4.2708   -2.5625    0.0000 C   0  0  0  0  0  0  0  0  0  0  0  0
   -4.3458   -0.1167    0.0000 C   0  0  0  0  0  0  0  0  0  0  0  0
  2  4  1  0
  3  5  1  0
  4  1  1  0
  5  1  2  0
  6  3  1  0
  7  2  1  0
  8  5  1  0
  9  4  2  0
 10  6  2  0
 11  2  1  0
 12  7  1  0
 13 12  1  0
 14 11  1  0
 15 13  1  0
 16 13  1  0
  2  6  1  0
M  END

> <chembl_id>
CHEMBL267894

> <chembl_pref_name>
AMOBARBITAL

$$$$

     RDKit          2D

 16 16  0  0  0  0  0  0  0  0999 V2000
    7.5875   -0.7250    0.0000 C   0  0  0  0  0  0  0  0  0  0  0  0
    9.0167   -0.7250    0.0000 N   0  0  0  0  0  0  0  0  0  0  0  0
    8.3042    0.5208    0.0000 N   0  0  0  0  0  0  0  0  0  0  0  0
    7.5875    0.1083    0.0000 C   0  0  0  0  0  0  0  0  0  0  0  0
    8.3042   -1.1417    0.0000 C   0  0  0  0  0  0  0  0  0  0  0  0
    9.0167    0.1083    0.0000 C   0  0  0  0  0  0  0  0  0  0  0  0
    7.5875   -1.5542    0.0000 C   0  0  0  0  0  0  0  0  0  0  0  0
    8.3042   -1.9542    0.0000 O   0  0  0  0  0  0  0  0  0  0  0  0
    6.8667    0.5250    0.0000 O   0  0  0  0  0  0  0  0  0  0  0  0
    9.7375    0.5333    0.0000 O   0  0  0  0  0  0  0  0  0  0  0  0
    6.9000   -0.2917    0.0000 C   0  0  0  0  0  0  0  0  0  0  0  0
    6.1792   -0.6542    0.0000 C   0  0  0  0  0  0  0  0  0  0  0  0
    5.4667   -0.2042    0.0000 C   0  0  0  0  0  0  0  0  0  0  0  0
    6.8542   -1.9625    0.0000 C   0  0  0  0  0  0  0  0  0  0  0  0
    6.1542   -1.5417    0.0000 C   0  0  0  0  0  0  0  0  0  0  0  0
    6.8625   -2.7917    0.0000 C   0  0  0  0  0  0  0  0  0  0  0  0
  2  5  1  0
  3  4  1  0
  4  1  1  0
  5  1  1  0
  6  2  1  0
  7  1  1  0
  8  5  2  0
  9  4  2  0
 10  6  2  0
 11  1  1  0
 12 11  1  0
 13 12  2  0
 14  7  1  0
 15 14  1  0
 16 14  1  0
  6  3  1  0
M  END

> <chembl_id>
CHEMBL454

> <chembl_pref_name>
BUTALBITAL

$$$$

     RDKit          2D

 19 21  0  0  0  0  0  0  0  0999 V2000
   -4.6219  -18.4735    0.0000 C   0  0  0  0  0  0  0  0  0  0  0  0
   -4.6231  -19.3002    0.0000 C   0  0  0  0  0  0  0  0  0  0  0  0
   -3.9090  -19.7127    0.0000 C   0  0  0  0  0  0  0  0  0  0  0  0
   -3.9108  -18.0613    0.0000 C   0  0  0  0  0  0  0  0  0  0  0  0
   -3.1961  -18.4699    0.0000 C   0  0  0  0  0  0  0  0  0  0  0  0
   -3.1912  -19.3002    0.0000 C   0  0  0  0  0  0  0  0  0  0  0  0
   -2.4001  -19.5521    0.0000 C   0  0  0  0  0  0  0  0  0  0  0  0
   -1.9161  -18.8776    0.0000 N   0  0  0  0  0  0  0  0  0  0  0  0
   -2.4079  -18.2088    0.0000 C   0  0  0  0  0  0  0  0  0  0  0  0
   -2.1579  -17.4235    0.0000 O   0  0  0  0  0  0  0  0  0  0  0  0
   -2.1408  -20.3346    0.0000 O   0  0  0  0  0  0  0  0  0  0  0  0
   -1.0918  -18.8727    0.0000 C   0  0  0  0  0  0  0  0  0  0  0  0
   -0.6816  -19.5841    0.0000 C   0  0  0  0  0  0  0  0  0  0  0  0
    0.1391  -19.5812    0.0000 N   0  0  0  0  0  0  0  0  0  0  0  0
    0.5507  -18.8668    0.0000 C   0  0  0  0  0  0  0  0  0  0  0  0
    0.1358  -18.1537    0.0000 C   0  0  0  0  0  0  0  0  0  0  0  0
   -0.6912  -18.1549    0.0000 C   0  0  0  0  0  0  0  0  0  0  0  0
   -1.0925  -20.2985    0.0000 O   0  0  0  0  0  0  0  0  0  0  0  0
    1.3749  -18.8651    0.0000 O   0  0  0  0  0  0  0  0  0  0  0  0
  9  5  1  0
  4  1  1  0
  9 10  2  0
  5  6  1  0
  7 11  2  0
  8 12  1  0
 12 13  1  0
  2  3  1  0
  3  6  2  0
  1  2  2  0
  5  4  2  0
  6  7  1  0
 12 17  1  0
 13 14  1  0
 14 15  1  0
 15 16  1  0
 16 17  1  0
  7  8  1  0
 13 18  2  0
  8  9  1  0
 15 19  2  0
M  END

> <chembl_id>
CHEMBL468

> <chembl_pref_name>
THALIDOMIDE

$$$$

     RDKit          2D

 19 21  0  0  0  0  0  0  0  0999 V2000
   -0.4208   -0.6125    0.0000 N   0  0  0  0  0  0  0  0  0  0  0  0
    0.4125   -1.6375    0.0000 C   0  0  0  0  0  0  0  0  0  0  0  0
    0.0375    0.6208    0.0000 C   0  0  0  0  0  0  0  0  0  0  0  0
    1.3500    0.8333    0.0000 N   0  0  0  0  0  0  0  0  0  0  0  0
    1.7167   -1.4167    0.0000 C   0  0  0  0  0  0  0  0  0  0  0  0
    2.1875   -0.1792    0.0000 C   0  0  0  0  0  0  0  0  0  0  0  0
   -1.7250   -0.8167    0.0000 C   0  0  0  0  0  0  0  0  0  0  0  0
   -0.0458   -2.8792    0.0000 O   0  0  0  0  0  0  0  0  0  0  0  0
   -2.1958   -2.0667    0.0000 C   0  0  0  0  0  0  0  0  0  0  0  0
   -0.7958    1.6458    0.0000 C   0  0  0  0  0  0  0  0  0  0  0  0
    2.5667   -2.4417    0.0000 C   0  0  0  0  0  0  0  0  0  0  0  0
   -2.5708    0.1875    0.0000 C   0  0  0  0  0  0  0  0  0  0  0  0
    3.5042    0.0208    0.0000 C   0  0  0  0  0  0  0  0  0  0  0  0
   -1.3583   -3.0917    0.0000 C   0  0  0  0  0  0  0  0  0  0  0  0
   -3.5083   -2.2792    0.0000 C   0  0  0  0  0  0  0  0  0  0  0  0
    3.8792   -2.2292    0.0000 C   0  0  0  0  0  0  0  0  0  0  0  0
   -3.8833   -0.0125    0.0000 C   0  0  0  0  0  0  0  0  0  0  0  0
    4.3417   -0.9917    0.0000 C   0  0  0  0  0  0  0  0  0  0  0  0
   -4.3458   -1.2542    0.0000 C   0  0  0  0  0  0  0  0  0  0  0  0
  2  1  1  0
  3  1  1  0
  4  3  2  0
  5  2  1  0
  6  4  1  0
  7  1  1  0
  8  2  2  0
  9  7  1  0
 10  3  1  0
 11  5  1  0
 12  7  2  0
 13  6  1  0
 14  9  1  0
 15  9  2  0
 16 11  2  0
 17 12  1  0
 18 13  2  0
 19 17  2  0
  5  6  2  0
 15 19  1  0
 16 18  1  0
M  END

> <chembl_id>
CHEMBL282052

> <chembl_pref_name>
METHAQUALONE

$$$$

     RDKit          2D

 23 26  0  0  0  0  0  0  0  0999 V2000
   13.0132   -8.6300    0.0000 N   0  0  0  0  0  0  0  0  0  0  0  0
   12.3652   -9.9631    0.0000 C   0  0  0  0  0  0  0  0  0  0  0  0
   12.3652   -9.1418    0.0000 C   0  0  0  0  0  0  0  0  0  0  0  0
   13.0132  -10.4790    0.0000 C   0  0  0  0  0  0  0  0  0  0  0  0
   13.8097   -8.8158    0.0000 C   0  0  0  0  0  0  0  0  0  0  0  0
   13.8097  -10.2933    0.0000 N   0  0  0  0  0  0  0  0  0  0  0  0
   14.2224   -8.1017    0.0000 N   0  0  0  0  0  0  0  0  0  0  0  0
   13.6941   -7.4868    0.0000 N   0  0  0  0  0  0  0  0  0  0  0  0
   12.9389   -7.8087    0.0000 C   0  0  0  0  0  0  0  0  0  0  0  0
   12.8357  -11.2673    0.0000 C   0  0  0  0  0  0  0  0  0  0  0  0
   14.1646   -9.5504    0.0000 C   0  0  0  0  0  0  0  0  0  0  0  0
   11.6553   -8.7291    0.0000 C   0  0  0  0  0  0  0  0  0  0  0  0
   11.6553  -10.3717    0.0000 C   0  0  0  0  0  0  0  0  0  0  0  0
   13.4217  -11.8534    0.0000 C   0  0  0  0  0  0  0  0  0  0  0  0
   10.9454   -9.9631    0.0000 C   0  0  0  0  0  0  0  0  0  0  0  0
   10.9454   -9.1418    0.0000 C   0  0  0  0  0  0  0  0  0  0  0  0
   14.2100  -11.6181    0.0000 Cl  0  0  0  0  0  0  0  0  0  0  0  0
   10.2273  -10.3717    0.0000 Cl  0  0  0  0  0  0  0  0  0  0  0  0
   12.0309  -11.5315    0.0000 C   0  0  0  0  0  0  0  0  0  0  0  0
   12.2290   -7.4001    0.0000 C   0  0  0  0  0  0  0  0  0  0  0  0
   13.2443  -12.6376    0.0000 C   0  0  0  0  0  0  0  0  0  0  0  0
   11.8699  -12.3157    0.0000 C   0  0  0  0  0  0  0  0  0  0  0  0
   12.4477  -12.8935    0.0000 C   0  0  0  0  0  0  0  0  0  0  0  0
  2  3  1  0
  3  1  1  0
  4  2  1  0
  5  1  1  0
  6 11  1  0
  7  5  2  0
  8  9  2  0
  9  1  1  0
 10  4  1  0
 11  5  1  0
 12  3  2  0
 13  2  2  0
 14 10  2  0
 15 16  2  0
 16 12  1  0
 17 14  1  0
 18 15  1  0
 19 10  1  0
 20  9  1  0
 21 14  1  0
 22 19  2  0
 23 22  1  0
  8  7  1  0
  6  4  2  0
 13 15  1  0
 21 23  2  0
M  END

> <chembl_id>
CHEMBL646

> <chembl_pref_name>
TRIAZOLAM

$$$$

     RDKit          2D

 22 25  0  0  0  0  0  0  0  0999 V2000
    0.8689   -1.3311    0.0000 N   0  0  0  0  0  0  0  0  0  0  0  0
    0.0000   -0.3882    0.0000 C   0  0  0  0  0  0  0  0  0  0  0  0
    0.0000    1.1277    0.0000 C   0  0  0  0  0  0  0  0  0  0  0  0
    2.3849   -1.0353    0.0000 C   0  0  0  0  0  0  0  0  0  0  0  0
    3.1059   -2.4034    0.0000 N   0  0  0  0  0  0  0  0  0  0  0  0
    0.9429    2.0521    0.0000 C   0  0  0  0  0  0  0  0  0  0  0  0
    2.4219    1.7563    0.0000 N   0  0  0  0  0  0  0  0  0  0  0  0
    2.0706   -3.4942    0.0000 N   0  0  0  0  0  0  0  0  0  0  0  0
    0.6840   -2.8471    0.0000 C   0  0  0  0  0  0  0  0  0  0  0  0
    3.0874    0.3143    0.0000 C   0  0  0  0  0  0  0  0  0  0  0  0
   -1.3126   -1.1462    0.0000 C   0  0  0  0  0  0  0  0  0  0  0  0
   -1.3126    1.8857    0.0000 C   0  0  0  0  0  0  0  0  0  0  0  0
    0.5151    3.4906    0.0000 C   0  0  0  0  0  0  0  0  0  0  0  0
   -2.6437    1.1277    0.0000 C   0  0  0  0  0  0  0  0  0  0  0  0
   -2.6437   -0.3882    0.0000 C   0  0  0  0  0  0  0  0  0  0  0  0
   -3.6812    1.7308    0.0000 Cl  0  0  0  0  0  0  0  0  0  0  0  0
   -0.3653   -3.4291    0.0000 C   0  0  0  0  0  0  0  0  0  0  0  0
    1.5708    4.5587    0.0000 C   0  0  0  0  0  0  0  0  0  0  0  0
   -0.9351    3.8727    0.0000 C   0  0  0  0  0  0  0  0  0  0  0  0
   -1.3312    5.3194    0.0000 C   0  0  0  0  0  0  0  0  0  0  0  0
    1.1747    6.0055    0.0000 C   0  0  0  0  0  0  0  0  0  0  0  0
   -0.2763    6.3858    0.0000 C   0  0  0  0  0  0  0  0  0  0  0  0
  2  1  1  0
  3  2  2  0
  4  1  1  0
  5  4  2  0
  6  3  1  0
  7 10  1  0
  8  9  2  0
  9  1  1  0
 10  4  1  0
 11  2  1  0
 12  3  1  0
 13  6  1  0
 14 15  1  0
 15 11  2  0
 16 14  1  0
 17  9  1  0
 18 13  2  0
 19 13  1  0
 20 19  2  0
 21 18  1  0
 22 20  1  0
  5  8  1  0
  6  7  2  0
 14 12  2  0
 22 21  2  0
M  END

> <chembl_id>
CHEMBL661

> <chembl_pref_name>
ALPRAZOLAM

$$$$

     RDKit          2D

 22 25  0  0  0  0  0  0  0  0999 V2000
    3.9625   -1.8667    0.0000 C   0  0  0  0  0  0  0  0  0  0  0  0
    3.9625   -2.6917    0.0000 C   0  0  0  0  0  0  0  0  0  0  0  0
    4.6000   -1.3542    0.0000 N   0  0  0  0  0  0  0  0  0  0  0  0
    4.6042   -3.2042    0.0000 C   0  0  0  0  0  0  0  0  0  0  0  0
    3.1667   -1.6042    0.0000 S   0  0  0  0  0  0  0  0  0  0  0  0
    5.4042   -1.5417    0.0000 C   0  0  0  0  0  0  0  0  0  0  0  0
    5.4042   -3.0250    0.0000 N   0  0  0  0  0  0  0  0  0  0  0  0
    5.8292   -0.8292    0.0000 N   0  0  0  0  0  0  0  0  0  0  0  0
    5.2875   -0.2042    0.0000 N   0  0  0  0  0  0  0  0  0  0  0  0
    4.5292   -0.5292    0.0000 C   0  0  0  0  0  0  0  0  0  0  0  0
    3.1667   -2.9500    0.0000 C   0  0  0  0  0  0  0  0  0  0  0  0
    2.6792   -2.2792    0.0000 C   0  0  0  0  0  0  0  0  0  0  0  0
    4.4167   -4.0042    0.0000 C   0  0  0  0  0  0  0  0  0  0  0  0
    5.7625   -2.2792    0.0000 C   0  0  0  0  0  0  0  0  0  0  0  0
    5.0250   -4.5667    0.0000 C   0  0  0  0  0  0  0  0  0  0  0  0
    1.8542   -2.2792    0.0000 Br  0  0  0  0  0  0  0  0  0  0  0  0
    5.8125   -4.3167    0.0000 Cl  0  0  0  0  0  0  0  0  0  0  0  0
    3.6292   -4.2542    0.0000 C   0  0  0  0  0  0  0  0  0  0  0  0
    3.8167   -0.1042    0.0000 C   0  0  0  0  0  0  0  0  0  0  0  0
    4.8417   -5.3667    0.0000 C   0  0  0  0  0  0  0  0  0  0  0  0
    3.4500   -5.0542    0.0000 C   0  0  0  0  0  0  0  0  0  0  0  0
    4.0542   -5.6167    0.0000 C   0  0  0  0  0  0  0  0  0  0  0  0
  2  1  2  0
  3  1  1  0
  4  2  1  0
  5  1  1  0
  6  3  1  0
  7  4  2  0
  8  6  2  0
  9 10  2  0
 10  3  1  0
 11  2  1  0
 12  5  1  0
 13  4  1  0
 14  6  1  0
 15 13  1  0
 16 12  1  0
 17 15  1  0
 18 13  2  0
 19 10  1  0
 20 15  2  0
 21 18  1  0
 22 21  2  0
 11 12  2  0
  9  8  1  0
  7 14  1  0
 20 22  1  0
M  END

> <chembl_id>
CHEMBL32479

> <chembl_pref_name>
BROTIZOLAM

$$$$

     RDKit          2D

 21 24  0  0  0  0  0  0  0  0999 V2000
    0.8222   -9.2820    0.0000 C   0  0  0  0  0  0  0  0  0  0  0  0
    0.9743  -10.0929    0.0000 C   0  0  0  0  0  0  0  0  0  0  0  0
    1.7348  -10.4127    0.0000 N   0  0  0  0  0  0  0  0  0  0  0  0
    1.6656  -11.2348    0.0000 N   0  0  0  0  0  0  0  0  0  0  0  0
    0.8624  -11.4231    0.0000 C   0  0  0  0  0  0  0  0  0  0  0  0
    0.4351  -10.7173    0.0000 N   0  0  0  0  0  0  0  0  0  0  0  0
   -0.3893  -10.6851    0.0000 C   0  0  0  0  0  0  0  0  0  0  0  0
   -0.8781  -10.0205    0.0000 C   0  0  0  0  0  0  0  0  0  0  0  0
   -1.6980  -10.1116    0.0000 C   0  0  0  0  0  0  0  0  0  0  0  0
   -2.0292  -10.8672    0.0000 C   0  0  0  0  0  0  0  0  0  0  0  0
   -1.5404  -11.5318    0.0000 C   0  0  0  0  0  0  0  0  0  0  0  0
   -0.7204  -11.4408    0.0000 C   0  0  0  0  0  0  0  0  0  0  0  0
   -2.8491  -10.9582    0.0000 Cl  0  0  0  0  0  0  0  0  0  0  0  0
   -0.6632   -9.2240    0.0000 C   0  0  0  0  0  0  0  0  0  0  0  0
    0.0935   -8.8953    0.0000 N   0  0  0  0  0  0  0  0  0  0  0  0
   -1.2877   -8.6848    0.0000 C   0  0  0  0  0  0  0  0  0  0  0  0
   -2.0668   -8.9560    0.0000 C   0  0  0  0  0  0  0  0  0  0  0  0
   -2.6913   -8.4169    0.0000 C   0  0  0  0  0  0  0  0  0  0  0  0
   -2.5366   -7.6065    0.0000 C   0  0  0  0  0  0  0  0  0  0  0  0
   -1.7574   -7.3353    0.0000 C   0  0  0  0  0  0  0  0  0  0  0  0
   -1.1330   -7.8745    0.0000 C   0  0  0  0  0  0  0  0  0  0  0  0
  1  2  1  0
  2  3  2  0
  3  4  1  0
  4  5  2  0
  5  6  1  0
  2  6  1  0
  6  7  1  0
  7  8  2  0
  8  9  1  0
  9 10  2  0
 10 11  1  0
 11 12  2  0
  7 12  1  0
 10 13  1  0
  8 14  1  0
 14 15  2  0
  1 15  1  0
 14 16  1  0
 16 17  2  0
 17 18  1  0
 18 19  2  0
 19 20  1  0
 20 21  2  0
 16 21  1  0
M  END

> <chembl_id>
CHEMBL285674

> <chembl_pref_name>
ESTAZOLAM

$$$$

     RDKit          2D

 23 25  0  0  0  0  0  0  0  0999 V2000
    0.7042    1.3625    0.0000 N   0  0  0  0  0  0  0  0  0  0  0  0
   -0.1958    1.9083    0.0000 C   0  0  0  0  0  0  0  0  0  0  0  0
    0.7167    3.4708    0.0000 S   0  0  0  0  0  0  0  0  0  0  0  0
   -0.1958    2.9583    0.0000 C   0  0  0  0  0  0  0  0  0  0  0  0
    1.6167    1.8833    0.0000 C   0  0  0  0  0  0  0  0  0  0  0  0
    1.6250    2.9333    0.0000 C   0  0  0  0  0  0  0  0  0  0  0  0
   -1.1083    1.3833    0.0000 C   0  0  0  0  0  0  0  0  0  0  0  0
   -2.0000    1.9000    0.0000 C   0  0  0  0  0  0  0  0  0  0  0  0
   -2.9208    1.3750    0.0000 C   0  0  0  0  0  0  0  0  0  0  0  0
   -1.0833    3.4833    0.0000 C   0  0  0  0  0  0  0  0  0  0  0  0
   -2.0000    2.9583    0.0000 C   0  0  0  0  0  0  0  0  0  0  0  0
   -3.8375    1.9208    0.0000 O   0  0  0  0  0  0  0  0  0  0  0  0
    0.7042    0.3208    0.0000 C   0  0  0  0  0  0  0  0  0  0  0  0
   -0.2083   -0.2042    0.0000 C   0  0  0  0  0  0  0  0  0  0  0  0
   -1.1333   -1.7792    0.0000 N   0  0  0  0  0  0  0  0  0  0  0  0
    2.5250    1.3458    0.0000 C   0  0  0  0  0  0  0  0  0  0  0  0
    2.5500    3.4583    0.0000 C   0  0  0  0  0  0  0  0  0  0  0  0
   -0.2083   -1.2500    0.0000 C   0  0  0  0  0  0  0  0  0  0  0  0
   -2.9458    0.3458    0.0000 C   0  0  0  0  0  0  0  0  0  0  0  0
   -1.1458   -2.8292    0.0000 C   0  0  0  0  0  0  0  0  0  0  0  0
   -2.0375   -1.2417    0.0000 C   0  0  0  0  0  0  0  0  0  0  0  0
    3.4542    1.8708    0.0000 C   0  0  0  0  0  0  0  0  0  0  0  0
    3.4542    2.9250    0.0000 C   0  0  0  0  0  0  0  0  0  0  0  0
  2  1  1  0
  3  6  1  0
  4  2  1  0
  5  1  1  0
  6  5  2  0
  7  2  2  0
  8  7  1  0
  9  8  1  0
 10  4  2  0
 11  8  2  0
 12  9  2  0
 13  1  1  0
 14 13  1  0
 15 18  1  0
 16  5  1  0
 17  6  1  0
 18 14  1  0
 19  9  1  0
 20 15  1  0
 21 15  1  0
 22 16  2  0
 23 17  2  0
  4  3  1  0
 22 23  1  0
 10 11  1  0
M  END

> <chembl_id>
CHEMBL39560

> <chembl_pref_name>
ACEPROMAZINE

$$$$

     RDKit          2D

 23 25  0  0  1  0  0  0  0  0999 V2000
   -0.9583   -1.5167    0.0000 C   0  0  0  0  0  0  0  0  0  0  0  0
   -1.6708   -1.3042    0.0000 N   0  0  0  0  0  0  0  0  0  0  0  0
   -0.9583   -0.3792    0.0000 N   0  0  0  0  0  0  0  0  0  0  0  0
   -0.5708   -0.9750    0.0000 C   0  0  0  0  0  0  0  0  0  0  0  0
   -1.6708   -0.5792    0.0000 C   0  0  0  0  0  0  0  0  0  0  0  0
   -0.9500   -2.2500    0.0000 C   0  0  0  0  0  0  0  0  0  0  0  0
   -0.3375   -2.5875    0.0000 C   0  0  0  0  0  0  0  0  0  0  0  0
   -2.2875   -1.6667    0.0000 C   0  0  0  0  0  0  0  0  0  0  0  0
   -2.2875   -0.2292    0.0000 C   0  0  0  0  0  0  0  0  0  0  0  0
    0.1292   -0.9750    0.0000 C   0  0  0  0  0  0  0  0  0  0  0  0
   -2.9083   -1.3042    0.0000 C   0  0  0  0  0  0  0  0  0  0  0  0
   -2.9083   -0.5792    0.0000 C   0  0  0  0  0  0  0  0  0  0  0  0
   -0.3375   -3.3000    0.0000 N   0  0  0  0  0  0  0  0  0  0  0  0
    0.2625   -2.2417    0.0000 O   0  0  0  0  0  0  0  0  0  0  0  0
    0.4917   -0.3542    0.0000 C   0  0  0  0  0  0  0  0  0  0  0  0
    0.4917   -1.6000    0.0000 C   0  0  0  0  0  0  0  0  0  0  0  0
    1.2125   -0.3542    0.0000 C   0  0  0  0  0  0  0  0  0  0  0  0
    1.2125   -1.6000    0.0000 C   0  0  0  0  0  0  0  0  0  0  0  0
    1.5667   -1.0000    0.0000 C   0  0  0  0  0  0  0  0  0  0  0  0
   -3.5125   -1.6542    0.0000 C   0  0  0  0  0  0  0  0  0  0  0  0
    0.2625   -3.6417    0.0000 C   0  0  0  0  0  0  0  0  0  0  0  0
   -0.9500   -3.6417    0.0000 C   0  0  0  0  0  0  0  0  0  0  0  0
    2.2792   -1.0000    0.0000 C   0  0  0  0  0  0  0  0  0  0  0  0
  2  1  1  0
  3  4  1  0
  4  1  2  0
  5  2  1  0
  6  1  1  0
  7  6  1  0
  8  2  1  0
  9  5  1  0
 10  4  1  0
 11  8  2  0
 12 11  1  0
 13  7  1  0
 14  7  2  0
 15 10  2  0
 16 10  1  0
 17 15  1  0
 18 16  2  0
 19 18  1  0
 20 11  1  0
 21 13  1  0
 22 13  1  0
 23 19  1  0
  3  5  2  0
  9 12  2  0
 17 19  2  0
M  END

> <chembl_id>
CHEMBL911

> <chembl_pref_name>
ZOLPIDEM

$$$$

     RDKit          2D

 22 23  0  0  0  0  0  0  0  0999 V2000
    4.3073   -2.5126    0.0000 O   0  0  0  0  0  0  0  0  0  0  0  0
    3.5841   -3.7287    0.0000 O   0  0  0  0  0  0  0  0  0  0  0  0
    0.6643   -1.3875    0.0000 N   0  0  0  0  0  0  0  0  0  0  0  0
    2.1644   -1.2483    0.0000 N   0  0  0  0  0  0  0  0  0  0  0  0
    0.1500   -2.0625    0.0000 N   0  0  0  0  0  0  0  0  0  0  0  0
    2.1429   -3.7179    0.0000 N   0  0  0  0  0  0  0  0  0  0  0  0
    1.4572   -2.4912    0.0000 C   0  0  0  0  0  0  0  0  0  0  0  0
    1.4572   -1.6554    0.0000 C   0  0  0  0  0  0  0  0  0  0  0  0
    2.1536   -2.8983    0.0000 C   0  0  0  0  0  0  0  0  0  0  0  0
    2.8768   -2.4912    0.0000 C   0  0  0  0  0  0  0  0  0  0  0  0
    2.8768   -1.6661    0.0000 C   0  0  0  0  0  0  0  0  0  0  0  0
    0.6536   -2.7590    0.0000 C   0  0  0  0  0  0  0  0  0  0  0  0
    3.5841   -2.9090    0.0000 C   0  0  0  0  0  0  0  0  0  0  0  0
    0.4286   -0.6161    0.0000 C   0  0  0  0  0  0  0  0  0  0  0  0
    3.5733   -1.2322    0.0000 C   0  0  0  0  0  0  0  0  0  0  0  0
    1.4304   -4.1251    0.0000 C   0  0  0  0  0  0  0  0  0  0  0  0
    0.9697    0.0000    0.0000 C   0  0  0  0  0  0  0  0  0  0  0  0
    5.0198   -2.9144    0.0000 C   0  0  0  0  0  0  0  0  0  0  0  0
    1.4304   -4.9501    0.0000 C   0  0  0  0  0  0  0  0  0  0  0  0
    0.7018   -5.3573    0.0000 C   0  0  0  0  0  0  0  0  0  0  0  0
    5.0520   -3.7394    0.0000 C   0  0  0  0  0  0  0  0  0  0  0  0
    0.0000   -4.9394    0.0000 C   0  0  0  0  0  0  0  0  0  0  0  0
  1 13  1  0
  1 18  1  0
  2 13  2  0
  3  5  1  0
  3  8  1  0
  3 14  1  0
  4  8  1  0
  4 11  2  0
  5 12  2  0
  6  9  1  0
  6 16  1  0
  7  8  2  0
  7  9  1  0
  7 12  1  0
  9 10  2  0
 10 11  1  0
 10 13  1  0
 11 15  1  0
 14 17  1  0
 16 19  1  0
 18 21  1  0
 19 20  1  0
 20 22  1  0
M  END

> <chembl_id>
CHEMBL84567

> <chembl_pref_name>
TRACAZOLATE

$$$$

     RDKit          2D

 16 17  0  0  0  0  0  0  0  0999 V2000
    0.0303   -0.2749    0.0000 C   0  0  0  0  0  0  0  0  0  0  0  0
   -0.7810   -0.4165    0.0000 C   0  0  0  0  0  0  0  0  0  0  0  0
   -1.0616   -1.1923    0.0000 C   0  0  0  0  0  0  0  0  0  0  0  0
   -1.0616   -2.0141    0.0000 C   0  0  0  0  0  0  0  0  0  0  0  0
   -1.7747   -2.4291    0.0000 C   0  0  0  0  0  0  0  0  0  0  0  0
   -2.4878   -2.0141    0.0000 C   0  0  0  0  0  0  0  0  0  0  0  0
   -3.2050   -2.4291    0.0000 O   0  0  0  0  0  0  0  0  0  0  0  0
   -2.4878   -1.1923    0.0000 N   0  0  0  0  0  0  0  0  0  0  0  0
   -1.7747   -0.7772    0.0000 C   0  0  0  0  0  0  0  0  0  0  0  0
   -1.7747    0.0446    0.0000 O   0  0  0  0  0  0  0  0  0  0  0  0
   -0.2503   -1.3338    0.0000 C   0  0  0  0  0  0  0  0  0  0  0  0
    0.2802   -0.7037    0.0000 C   0  0  0  0  0  0  0  0  0  0  0  0
    1.0915   -0.8451    0.0000 C   0  0  0  0  0  0  0  0  0  0  0  0
    1.3762   -1.6209    0.0000 C   0  0  0  0  0  0  0  0  0  0  0  0
    0.8456   -2.2511    0.0000 C   0  0  0  0  0  0  0  0  0  0  0  0
    0.0303   -2.1096    0.0000 C   0  0  0  0  0  0  0  0  0  0  0  0
  1  2  1  0
  2  3  1  0
  3  4  1  0
  4  5  1  0
  5  6  1  0
  6  7  2  0
  6  8  1  0
  8  9  1  0
  3  9  1  0
  9 10  2  0
  3 11  1  0
 11 12  2  0
 12 13  1  0
 13 14  2  0
 14 15  1  0
 15 16  2  0
 11 16  1  0
M  END

> <chembl_id>
CHEMBL1102

> <chembl_pref_name>
GLUTETHIMIDE

$$$$

     RDKit          2D

 22 25  0  0  0  0  0  0  0  0999 V2000
    3.6000   -2.3542    0.0000 C   0  0  0  0  0  0  0  0  0  0  0  0
    3.0167   -2.2167    0.0000 N   0  0  0  0  0  0  0  0  0  0  0  0
    4.1417   -2.0917    0.0000 N   0  0  0  0  0  0  0  0  0  0  0  0
    3.8625   -2.8917    0.0000 C   0  0  0  0  0  0  0  0  0  0  0  0
    2.5500   -2.5917    0.0000 C   0  0  0  0  0  0  0  0  0  0  0  0
    3.6000   -3.4292    0.0000 C   0  0  0  0  0  0  0  0  0  0  0  0
    3.0167   -3.5667    0.0000 C   0  0  0  0  0  0  0  0  0  0  0  0
    2.5500   -3.2000    0.0000 C   0  0  0  0  0  0  0  0  0  0  0  0
    5.2292   -1.5667    0.0000 N   0  0  0  0  0  0  0  0  0  0  0  0
    4.6417   -2.4292    0.0000 C   0  0  0  0  0  0  0  0  0  0  0  0
    4.1917   -1.4917    0.0000 C   0  0  0  0  0  0  0  0  0  0  0  0
    4.7292   -1.2292    0.0000 C   0  0  0  0  0  0  0  0  0  0  0  0
    5.1875   -2.1667    0.0000 C   0  0  0  0  0  0  0  0  0  0  0  0
    4.4625   -2.8417    0.0000 C   0  0  0  0  0  0  0  0  0  0  0  0
    5.7750   -1.3042    0.0000 C   0  0  0  0  0  0  0  0  0  0  0  0
    3.9417   -3.9292    0.0000 C   0  0  0  0  0  0  0  0  0  0  0  0
    2.0292   -2.2917    0.0000 C   0  0  0  0  0  0  0  0  0  0  0  0
    2.0292   -3.4917    0.0000 C   0  0  0  0  0  0  0  0  0  0  0  0
    4.8000   -3.3375    0.0000 C   0  0  0  0  0  0  0  0  0  0  0  0
    4.5417   -3.8792    0.0000 C   0  0  0  0  0  0  0  0  0  0  0  0
    1.5125   -2.5917    0.0000 C   0  0  0  0  0  0  0  0  0  0  0  0
    1.5125   -3.1917    0.0000 C   0  0  0  0  0  0  0  0  0  0  0  0
  2  1  2  0
  3  1  1  0
  4  1  1  0
  5  2  1  0
  6  4  2  0
  7  6  1  0
  8  5  2  0
  9 12  1  0
 10  3  1  0
 11  3  1  0
 12 11  1  0
 13 10  1  0
 14  4  1  0
 15  9  1  0
 16  6  1  0
 17  5  1  0
 18  8  1  0
 19 14  2  0
 20 19  1  0
 21 17  2  0
 22 21  1  0
 13  9  1  0
  8  7  1  0
 16 20  2  0
 18 22  2  0
M  END

> <chembl_id>
CHEMBL340801

> <chembl_pref_name>
PERLAPINE

$$$$

     RDKit          2D

 10  9  0  0  0  0  0  0  0  0999 V2000
    2.4042   -1.8667    0.0000 P   0  0  0  0  0  0  0  0  0  0  0  0
    0.5542   -2.2167    0.0000 C   0  0  0  0  0  0  0  0  0  0  0  0
    1.1750   -1.8667    0.0000 C   0  0  0  0  0  0  0  0  0  0  0  0
    1.7875   -2.2167    0.0000 O   0  0  0  0  0  0  0  0  0  0  0  0
    3.0167   -2.2167    0.0000 O   0  0  0  0  0  0  0  0  0  0  0  0
    2.7542   -1.2417    0.0000 O   0  0  0  0  0  0  0  0  0  0  0  0
    2.0417   -1.2417    0.0000 O   0  0  0  0  0  0  0  0  0  0  0  0
    0.9042   -2.8375    0.0000 Cl  0  0  0  0  0  0  0  0  0  0  0  0
    0.2000   -2.8375    0.0000 Cl  0  0  0  0  0  0  0  0  0  0  0  0
   -0.0583   -1.8667    0.0000 Cl  0  0  0  0  0  0  0  0  0  0  0  0
  2  3  1  0
  3  4  1  0
  4  1  1  0
  5  1  1  0
  6  1  2  0
  7  1  1  0
  8  2  1  0
  9  2  1  0
 10  2  1  0
M  END

> <chembl_id>
CHEMBL1201317

> <chembl_pref_name>
TRICLOFOS

$$$$

     RDKit          2D

  9  9  0  0  0  0  0  0  0  0999 V2000
    0.5350    0.7837    0.0000 O   0  0  0  0  0  0  0  0  0  0  0  0
   -0.1794   -0.4538    0.0000 O   0  0  0  0  0  0  0  0  0  0  0  0
   -0.8939    0.7837    0.0000 O   0  0  0  0  0  0  0  0  0  0  0  0
    0.5350   -0.0413    0.0000 C   0  0  0  0  0  0  0  0  0  0  0  0
   -0.1794    1.1962    0.0000 C   0  0  0  0  0  0  0  0  0  0  0  0
   -0.8939   -0.0413    0.0000 C   0  0  0  0  0  0  0  0  0  0  0  0
    1.2495   -0.4538    0.0000 C   0  0  0  0  0  0  0  0  0  0  0  0
   -0.1794    2.0212    0.0000 C   0  0  0  0  0  0  0  0  0  0  0  0
   -1.6084   -0.4538    0.0000 C   0  0  0  0  0  0  0  0  0  0  0  0
  1  4  1  0
  1  5  1  0
  2  4  1  0
  2  6  1  0
  3  5  1  0
  3  6  1  0
  4  7  1  0
  5  8  1  0
  6  9  1  0
M  END

> <chembl_id>
CHEMBL1410743

> <chembl_pref_name>
PARALDEHYDE

$$$$
