
     RDKit          2D

 80 82  0  0  0  0  0  0  0  0999 V2000
    1.0826  -16.8108    0.0000 C   0  0  0  0  0  0  0  0  0  0  0  0
   -1.5534  -15.5293    0.0000 C   0  0  0  0  0  0  0  0  0  0  0  0
   -2.9806  -15.5389    0.0000 C   0  0  0  0  0  0  0  0  0  0  0  0
   -3.6942  -13.4855    0.0000 C   0  0  0  0  0  0  0  0  0  0  0  0
   -2.2670  -15.9467    0.0000 C   0  0  0  0  0  0  0  0  0  0  0  0
    0.6748  -17.5244    0.0000 C   0  0  0  0  0  0  0  0  0  0  0  0
   -0.8398  -14.3059    0.0000 C   0  0  0  0  0  0  0  0  0  0  0  0
   -1.5534  -14.7137    0.0000 C   0  0  0  0  0  0  0  0  0  0  0  0
   -2.9806  -12.2622    0.0000 C   0  0  0  0  0  0  0  0  0  0  0  0
   -2.9806  -14.7137    0.0000 O   0  0  0  0  0  0  0  0  0  0  0  0
   -2.9806  -13.0826    0.0000 C   0  0  0  0  0  0  0  0  0  0  0  0
   -2.2670  -11.8448    0.0000 C   0  0  0  0  0  0  0  0  0  0  0  0
    1.0777  -15.7137    0.0000 O   0  0  0  0  0  0  0  0  0  0  0  0
   -3.1699  -19.1264    0.0000 C   0  0  0  0  0  0  0  0  0  0  0  0
   -0.1553  -17.5244    0.0000 C   0  0  0  0  0  0  0  0  0  0  0  0
   -0.8398  -13.4855    0.0000 C   0  0  0  0  0  0  0  0  0  0  0  0
   -1.9369  -18.4128    0.0000 C   0  0  0  0  0  0  0  0  0  0  0  0
   -2.3447  -19.1264    0.0000 C   0  0  0  0  0  0  0  0  0  0  0  0
    0.6748  -16.0972    0.0000 O   0  0  0  0  0  0  0  0  0  0  0  0
   -2.3447  -17.6992    0.0000 O   0  0  0  0  0  0  0  0  0  0  0  0
   -3.6942  -14.3059    0.0000 C   0  0  0  0  0  0  0  0  0  0  0  0
   -3.5874  -18.4128    0.0000 C   0  0  0  0  0  0  0  0  0  0  0  0
   -0.8398  -15.9418    0.0000 O   0  0  0  0  0  0  0  0  0  0  0  0
   -3.1699  -17.6992    0.0000 C   0  0  0  0  0  0  0  0  0  0  0  0
   -1.5534  -12.2525    0.0000 C   0  0  0  0  0  0  0  0  0  0  0  0
   -1.5534  -13.0777    0.0000 C   0  0  0  0  0  0  0  0  0  0  0  0
   -0.5680  -16.8108    0.0000 C   0  0  0  0  0  0  0  0  0  0  0  0
   -0.5631  -18.2380    0.0000 N   0  0  0  0  0  0  0  0  0  0  0  0
   -3.6942  -15.9516    0.0000 O   0  0  0  0  0  0  0  0  0  0  0  0
   -0.1553  -16.0972    0.0000 C   0  0  0  0  0  0  0  0  0  0  0  0
   -2.2719  -11.0243    0.0000 O   0  0  0  0  0  0  0  0  0  0  0  0
   -4.1068  -12.7622    0.0000 O   0  0  0  0  0  0  0  0  0  0  0  0
    1.0826  -18.2380    0.0000 O   0  0  0  0  0  0  0  0  0  0  0  0
   -0.4320  -12.7622    0.0000 O   0  0  0  0  0  0  0  0  0  0  0  0
   -2.2670  -13.4952    0.0000 O   0  0  0  0  0  0  0  0  0  0  0  0
   -3.8884  -19.5341    0.0000 O   0  0  0  0  0  0  0  0  0  0  0  0
   -4.4126  -18.4128    0.0000 O   0  0  0  0  0  0  0  0  0  0  0  0
   -4.5146  -13.4855    0.0000 C   0  0  0  0  0  0  0  0  0  0  0  0
   -2.2622  -16.7671    0.0000 C   0  0  0  0  0  0  0  0  0  0  0  0
   -2.2719  -14.2962    0.0000 C   0  0  0  0  0  0  0  0  0  0  0  0
   -3.6942  -11.8495    0.0000 C   0  0  0  0  0  0  0  0  0  0  0  0
   -3.1748  -19.9516    0.0000 C   0  0  0  0  0  0  0  0  0  0  0  0
   -0.0146  -13.4855    0.0000 C   0  0  0  0  0  0  0  0  0  0  0  0
   -4.4078  -14.7234    0.0000 C   0  0  0  0  0  0  0  0  0  0  0  0
   -3.5825  -16.9807    0.0000 C   0  0  0  0  0  0  0  0  0  0  0  0
   -0.8398  -11.8399    0.0000 C   0  0  0  0  0  0  0  0  0  0  0  0
   -0.1505  -18.9516    0.0000 C   0  0  0  0  0  0  0  0  0  0  0  0
   -1.3884  -18.2380    0.0000 C   0  0  0  0  0  0  0  0  0  0  0  0
   -0.5631  -15.3787    0.0000 C   0  0  0  0  0  0  0  0  0  0  0  0
   -4.6020  -19.1118    0.0000 C   0  0  0  0  0  0  0  0  0  0  0  0
   -5.1214  -14.3107    0.0000 C   0  0  0  0  0  0  0  0  0  0  0  0
    1.7962  -17.2186    0.0000 H   0  0  0  0  0  0  0  0  0  0  0  0
   -0.0146  -14.3059    0.0000 H   0  0  0  0  0  0  0  0  0  0  0  0
   -1.2233  -18.8205    0.0000 H   0  0  0  0  0  0  0  0  0  0  0  0
    5.7088  -16.3933    0.0000 C   0  0  0  0  0  0  0  0  0  0  0  0
    5.3010  -17.1021    0.0000 C   0  0  0  0  0  0  0  0  0  0  0  0
    4.4758  -17.1021    0.0000 C   0  0  0  0  0  0  0  0  0  0  0  0
    7.1409  -16.3787    0.0000 C   0  0  0  0  0  0  0  0  0  0  0  0
    5.3010  -15.6797    0.0000 O   0  0  0  0  0  0  0  0  0  0  0  0
    7.8496  -15.9564    0.0000 C   0  0  0  0  0  0  0  0  0  0  0  0
    8.5681  -16.3641    0.0000 C   0  0  0  0  0  0  0  0  0  0  0  0
    6.4224  -15.9758    0.0000 O   0  0  0  0  0  0  0  0  0  0  0  0
    4.0582  -16.3933    0.0000 C   0  0  0  0  0  0  0  0  0  0  0  0
    4.4758  -15.6797    0.0000 C   0  0  0  0  0  0  0  0  0  0  0  0
    9.2768  -15.9418    0.0000 C   0  0  0  0  0  0  0  0  0  0  0  0
    7.1456  -17.2040    0.0000 C   0  0  0  0  0  0  0  0  0  0  0  0
    9.2719  -15.1166    0.0000 O   0  0  0  0  0  0  0  0  0  0  0  0
    5.7137  -17.8205    0.0000 O   0  0  0  0  0  0  0  0  0  0  0  0
    4.0631  -17.8205    0.0000 O   0  0  0  0  0  0  0  0  0  0  0  0
    8.5777  -17.1895    0.0000 O   0  0  0  0  0  0  0  0  0  0  0  0
    7.8399  -15.1312    0.0000 O   0  0  0  0  0  0  0  0  0  0  0  0
    3.2330  -16.3933    0.0000 O   0  0  0  0  0  0  0  0  0  0  0  0
    9.9952  -16.3496    0.0000 O   0  0  0  0  0  0  0  0  0  0  0  0
    6.4369  -17.6215    0.0000 O   0  0  0  0  0  0  0  0  0  0  0  0
    4.0631  -14.9613    0.0000 C   0  0  0  0  0  0  0  0  0  0  0  0
    3.2379  -14.9613    0.0000 O   0  0  0  0  0  0  0  0  0  0  0  0
    7.8738  -18.4321    0.0000 O   0  0  0  0  0  0  0  0  0  0  0  0
    7.8641  -17.6069    0.0000 C   0  0  0  0  0  0  0  0  0  0  0  0
    7.8545  -16.7914    0.0000 H   0  0  0  0  0  0  0  0  0  0  0  0
    6.4224  -16.8059    0.0000 H   0  0  0  0  0  0  0  0  0  0  0  0
  2  8  1  0
  3  5  1  0
  4 21  1  0
  5  2  1  0
  6  1  1  0
  7 13  1  0
  8  7  1  0
  9 12  1  0
 10  3  1  0
 11  9  1  0
 12 25  1  0
 13  1  1  0
 14 18  1  0
 15  6  1  0
 16  7  1  0
 17 23  1  0
 18 17  1  0
 19  1  1  0
 20 17  1  0
 21 10  1  0
 22 24  1  0
  2 23  1  6
 24 20  1  0
 25 26  1  0
 26 16  1  0
 27 30  1  0
 15 28  1  1
 29  3  2  0
 30 19  1  0
 31 12  2  0
  4 32  1  1
  6 33  1  6
 16 34  1  1
 11 35  1  1
 14 36  1  1
 22 37  1  1
 38  4  1  0
  5 39  1  1
  8 40  1  6
  9 41  1  1
 42 14  1  0
 43 16  1  0
 21 44  1  6
 24 45  1  6
 25 46  1  6
 47 28  1  0
 48 28  1  0
 30 49  1  1
 50 36  1  0
 51 44  1  0
  1 52  1  6
  7 53  1  1
 17 54  1  6
 27 15  1  0
  4 11  1  0
 22 14  1  0
 56 55  1  0
 57 56  1  0
 58 62  1  0
 59 55  1  0
 60 58  1  0
 61 60  1  0
 62 55  1  0
 63 64  1  0
 64 59  1  0
 65 61  1  0
 66 58  1  0
 67 65  2  0
 56 68  1  6
 57 69  1  1
 61 70  1  6
 60 71  1  6
 63 72  1  1
 73 65  1  0
 66 74  1  1
 64 75  1  1
 76 75  1  0
 77 78  1  0
 78 66  1  0
 58 79  1  6
 55 80  1  6
 63 57  1  0
M  END

> <chembl_id>
CHEMBL1200506

> <chembl_pref_name>
ERYTHROMYCIN LACTOBIONATE


$$$$

     RDKit          2D

 74 75  0  0  0  0  0  0  0  0999 V2000
    2.9375  -13.0792    0.0000 C   0  0  0  0  0  0  0  0  0  0  0  0
    2.9375  -12.3750    0.0000 O   0  0  0  0  0  0  0  0  0  0  0  0
    2.3250  -13.4375    0.0000 O   0  0  0  0  0  0  0  0  0  0  0  0
    3.5542  -13.4375    0.0000 C   0  0  0  0  0  0  0  0  0  0  0  0
    4.1667  -13.0792    0.0000 C   0  0  0  0  0  0  0  0  0  0  0  0
    4.7750  -14.1417    0.0000 C   0  0  0  0  0  0  0  0  0  0  0  0
    5.3917  -14.4958    0.0000 C   0  0  0  0  0  0  0  0  0  0  0  0
    6.0042  -13.4292    0.0000 C   0  0  0  0  0  0  0  0  0  0  0  0
    6.6167  -13.0750    0.0000 C   0  0  0  0  0  0  0  0  0  0  0  0
    7.2292  -13.4292    0.0000 C   0  0  0  0  0  0  0  0  0  0  0  0
    7.8417  -13.0708    0.0000 C   0  0  0  0  0  0  0  0  0  0  0  0
    8.4542  -13.4250    0.0000 C   0  0  0  0  0  0  0  0  0  0  0  0
    8.4583  -14.1333    0.0000 C   0  0  0  0  0  0  0  0  0  0  0  0
    7.8458  -14.4875    0.0000 C   0  0  0  0  0  0  0  0  0  0  0  0
    7.2292  -14.1375    0.0000 C   0  0  0  0  0  0  0  0  0  0  0  0
    6.6167  -14.4917    0.0000 C   0  0  0  0  0  0  0  0  0  0  0  0
    6.0042  -14.1417    0.0000 C   0  0  0  0  0  0  0  0  0  0  0  0
    4.7792  -13.4375    0.0000 C   0  0  0  0  0  0  0  0  0  0  0  0
    5.3917  -13.0792    0.0000 C   0  0  0  0  0  0  0  0  0  0  0  0
    4.1625  -14.5000    0.0000 C   0  0  0  0  0  0  0  0  0  0  0  0
    0.9292  -14.4292    0.0000 C   0  0  0  0  0  0  0  0  0  0  0  0
   -1.3333  -13.3292    0.0000 C   0  0  0  0  0  0  0  0  0  0  0  0
   -2.5583  -13.3375    0.0000 C   0  0  0  0  0  0  0  0  0  0  0  0
   -3.1708  -11.5750    0.0000 C   0  0  0  0  0  0  0  0  0  0  0  0
   -1.9458  -13.6875    0.0000 C   0  0  0  0  0  0  0  0  0  0  0  0
    0.5792  -15.0417    0.0000 C   0  0  0  0  0  0  0  0  0  0  0  0
   -0.7208  -12.2792    0.0000 C   0  0  0  0  0  0  0  0  0  0  0  0
   -1.3333  -12.6292    0.0000 C   0  0  0  0  0  0  0  0  0  0  0  0
   -2.5583  -10.5250    0.0000 C   0  0  0  0  0  0  0  0  0  0  0  0
   -2.5583  -12.6292    0.0000 O   0  0  0  0  0  0  0  0  0  0  0  0
   -2.5583  -11.2292    0.0000 C   0  0  0  0  0  0  0  0  0  0  0  0
   -1.9458  -10.1667    0.0000 C   0  0  0  0  0  0  0  0  0  0  0  0
    0.9250  -13.4875    0.0000 O   0  0  0  0  0  0  0  0  0  0  0  0
   -2.7208  -16.4167    0.0000 C   0  0  0  0  0  0  0  0  0  0  0  0
   -0.1333  -15.0417    0.0000 C   0  0  0  0  0  0  0  0  0  0  0  0
   -0.7208  -11.5750    0.0000 C   0  0  0  0  0  0  0  0  0  0  0  0
   -1.6625  -15.8042    0.0000 C   0  0  0  0  0  0  0  0  0  0  0  0
   -2.0125  -16.4167    0.0000 C   0  0  0  0  0  0  0  0  0  0  0  0
    0.5792  -13.8167    0.0000 O   0  0  0  0  0  0  0  0  0  0  0  0
   -2.0125  -15.1917    0.0000 O   0  0  0  0  0  0  0  0  0  0  0  0
   -3.1708  -12.2792    0.0000 C   0  0  0  0  0  0  0  0  0  0  0  0
   -3.0792  -15.8042    0.0000 C   0  0  0  0  0  0  0  0  0  0  0  0
   -0.7208  -13.6833    0.0000 O   0  0  0  0  0  0  0  0  0  0  0  0
   -2.7208  -15.1917    0.0000 C   0  0  0  0  0  0  0  0  0  0  0  0
   -1.3333  -10.5167    0.0000 C   0  0  0  0  0  0  0  0  0  0  0  0
   -1.3333  -11.2250    0.0000 C   0  0  0  0  0  0  0  0  0  0  0  0
   -0.4875  -14.4292    0.0000 C   0  0  0  0  0  0  0  0  0  0  0  0
   -0.4833  -15.6542    0.0000 N   0  0  0  0  0  0  0  0  0  0  0  0
   -3.1708  -13.6917    0.0000 O   0  0  0  0  0  0  0  0  0  0  0  0
   -0.1333  -13.8167    0.0000 C   0  0  0  0  0  0  0  0  0  0  0  0
   -1.9500   -9.4625    0.0000 O   0  0  0  0  0  0  0  0  0  0  0  0
   -3.5250  -10.9542    0.0000 O   0  0  0  0  0  0  0  0  0  0  0  0
    0.9292  -15.6542    0.0000 O   0  0  0  0  0  0  0  0  0  0  0  0
   -0.3708  -10.9542    0.0000 O   0  0  0  0  0  0  0  0  0  0  0  0
   -1.9458  -11.5833    0.0000 O   0  0  0  0  0  0  0  0  0  0  0  0
   -3.3375  -16.7667    0.0000 O   0  0  0  0  0  0  0  0  0  0  0  0
   -3.7875  -15.8042    0.0000 O   0  0  0  0  0  0  0  0  0  0  0  0
   -3.8750  -11.5750    0.0000 C   0  0  0  0  0  0  0  0  0  0  0  0
   -1.9417  -14.3917    0.0000 C   0  0  0  0  0  0  0  0  0  0  0  0
   -1.9500  -12.2708    0.0000 C   0  0  0  0  0  0  0  0  0  0  0  0
   -3.1708  -10.1708    0.0000 C   0  0  0  0  0  0  0  0  0  0  0  0
   -2.7250  -17.1250    0.0000 C   0  0  0  0  0  0  0  0  0  0  0  0
   -0.0125  -11.5750    0.0000 C   0  0  0  0  0  0  0  0  0  0  0  0
   -3.7833  -12.6375    0.0000 C   0  0  0  0  0  0  0  0  0  0  0  0
   -3.0750  -14.5750    0.0000 C   0  0  0  0  0  0  0  0  0  0  0  0
   -0.7208  -10.1625    0.0000 C   0  0  0  0  0  0  0  0  0  0  0  0
   -0.1292  -16.2667    0.0000 C   0  0  0  0  0  0  0  0  0  0  0  0
   -1.1917  -15.6542    0.0000 C   0  0  0  0  0  0  0  0  0  0  0  0
   -0.4833  -13.2000    0.0000 C   0  0  0  0  0  0  0  0  0  0  0  0
   -3.9500  -16.4042    0.0000 C   0  0  0  0  0  0  0  0  0  0  0  0
   -4.3958  -12.2833    0.0000 C   0  0  0  0  0  0  0  0  0  0  0  0
   -1.0500  -16.1542    0.0000 H   0  0  0  0  0  0  0  0  0  0  0  0
    1.5417  -14.7792    0.0000 H   0  0  0  0  0  0  0  0  0  0  0  0
   -0.0125  -12.2792    0.0000 H   0  0  0  0  0  0  0  0  0  0  0  0
  2  1  2  0
  3  1  1  0
  4  1  1  0
  5  4  1  0
  6  7  1  0
  7 17  1  0
  8 19  1  0
  9  8  1  0
 10  9  1  0
 11 10  1  0
 12 11  1  0
 13 12  1  0
 14 13  1  0
 15 14  1  0
 16 15  1  0
 17 16  1  0
 18  5  1  0
 19 18  1  0
 20  6  1  0
 22 28  1  0
 23 25  1  0
 24 31  1  0
 25 22  1  0
 26 21  1  0
 27 33  1  0
 28 27  1  0
 29 32  1  0
 30 23  1  0
 31 29  1  0
 32 45  1  0
 33 21  1  0
 34 38  1  0
 35 26  1  0
 36 27  1  0
 37 43  1  0
 38 37  1  0
 39 21  1  0
 40 37  1  0
 41 30  1  0
 42 44  1  0
 22 43  1  6
 44 40  1  0
 45 46  1  0
 46 36  1  0
 47 50  1  0
 35 48  1  1
 49 23  2  0
 50 39  1  0
 51 32  2  0
 24 52  1  1
 26 53  1  6
 36 54  1  1
 31 55  1  1
 34 56  1  1
 42 57  1  1
 58 24  1  0
 25 59  1  1
 28 60  1  6
 29 61  1  1
 62 34  1  0
 63 36  1  0
 41 64  1  6
 44 65  1  6
 45 66  1  6
 67 48  1  0
 68 48  1  0
 50 69  1  1
 70 56  1  0
 71 64  1  0
 37 72  1  6
 21 73  1  6
 27 74  1  1
 47 35  1  0
 41 24  1  0
 42 34  1  0
M  END

> <chembl_id>
CHEMBL1200510

> <chembl_pref_name>
ERYTHROMYCIN STEARATE


$$$$

     RDKit          2D

 63 65  0  0  0  0  0  0  0  0999 V2000
    0.8292   -2.9000    0.0000 C   0  0  0  0  0  0  0  0  0  0  0  0
    1.1833   -2.2875    0.0000 C   0  0  0  0  0  0  0  0  0  0  0  0
   -1.0833   -1.1917    0.0000 C   0  0  0  0  0  0  0  0  0  0  0  0
   -2.3000   -1.1917    0.0000 C   0  0  0  0  0  0  0  0  0  0  0  0
   -2.9125    0.5708    0.0000 C   0  0  0  0  0  0  0  0  0  0  0  0
   -1.6875   -1.5417    0.0000 C   0  0  0  0  0  0  0  0  0  0  0  0
   -0.4708   -0.1375    0.0000 C   0  0  0  0  0  0  0  0  0  0  0  0
   -1.0833   -0.4875    0.0000 C   0  0  0  0  0  0  0  0  0  0  0  0
   -2.3000    1.6208    0.0000 C   0  0  0  0  0  0  0  0  0  0  0  0
   -2.3000   -0.4917    0.0000 O   0  0  0  0  0  0  0  0  0  0  0  0
   -2.3000    0.9125    0.0000 C   0  0  0  0  0  0  0  0  0  0  0  0
    0.1250   -2.9000    0.0000 C   0  0  0  0  0  0  0  0  0  0  0  0
   -1.6958    1.9708    0.0000 C   0  0  0  0  0  0  0  0  0  0  0  0
    1.1792   -1.3417    0.0000 O   0  0  0  0  0  0  0  0  0  0  0  0
   -2.4708   -4.2750    0.0000 C   0  0  0  0  0  0  0  0  0  0  0  0
   -0.4708    0.5708    0.0000 C   0  0  0  0  0  0  0  0  0  0  0  0
   -1.4083   -3.6625    0.0000 C   0  0  0  0  0  0  0  0  0  0  0  0
   -1.7583   -4.2750    0.0000 C   0  0  0  0  0  0  0  0  0  0  0  0
    0.8292   -1.6750    0.0000 O   0  0  0  0  0  0  0  0  0  0  0  0
   -1.7583   -3.0500    0.0000 O   0  0  0  0  0  0  0  0  0  0  0  0
   -2.9125   -0.1417    0.0000 C   0  0  0  0  0  0  0  0  0  0  0  0
   -2.8250   -3.6625    0.0000 C   0  0  0  0  0  0  0  0  0  0  0  0
   -0.4667   -1.5417    0.0000 O   0  0  0  0  0  0  0  0  0  0  0  0
   -2.4708   -3.0500    0.0000 C   0  0  0  0  0  0  0  0  0  0  0  0
   -1.0833    1.6208    0.0000 C   0  0  0  0  0  0  0  0  0  0  0  0
    1.1875   -3.5125    0.0000 O   0  0  0  0  0  0  0  0  0  0  0  0
   -1.0833    0.9208    0.0000 C   0  0  0  0  0  0  0  0  0  0  0  0
   -0.2333   -2.2875    0.0000 C   0  0  0  0  0  0  0  0  0  0  0  0
    1.1792   -4.2167    0.0000 C   0  0  0  0  0  0  0  0  0  0  0  0
   -0.2292   -3.5125    0.0000 N   0  0  0  0  0  0  0  0  0  0  0  0
   -2.9167   -1.5500    0.0000 O   0  0  0  0  0  0  0  0  0  0  0  0
    3.0208   -4.5833    0.0000 C   0  0  0  0  0  0  0  0  0  0  0  0
    0.1250   -1.6750    0.0000 C   0  0  0  0  0  0  0  0  0  0  0  0
   -1.6958    2.6833    0.0000 O   0  0  0  0  0  0  0  0  0  0  0  0
    0.5667   -4.5708    0.0000 O   0  0  0  0  0  0  0  0  0  0  0  0
    3.0167   -5.2917    0.0000 O   0  0  0  0  0  0  0  0  0  0  0  0
   -3.2708    1.1833    0.0000 O   0  0  0  0  0  0  0  0  0  0  0  0
   -0.1208    1.1833    0.0000 O   0  0  0  0  0  0  0  0  0  0  0  0
   -1.6917    0.5583    0.0000 O   0  0  0  0  0  0  0  0  0  0  0  0
   -3.0833   -4.6250    0.0000 O   0  0  0  0  0  0  0  0  0  0  0  0
   -3.5333   -3.6625    0.0000 O   0  0  0  0  0  0  0  0  0  0  0  0
    1.7917   -4.5750    0.0000 C   0  0  0  0  0  0  0  0  0  0  0  0
    2.4083   -4.2250    0.0000 C   0  0  0  0  0  0  0  0  0  0  0  0
   -3.6208    0.5708    0.0000 C   0  0  0  0  0  0  0  0  0  0  0  0
   -1.6875   -2.2542    0.0000 C   0  0  0  0  0  0  0  0  0  0  0  0
   -1.6958   -0.1292    0.0000 C   0  0  0  0  0  0  0  0  0  0  0  0
   -2.9167    1.9708    0.0000 C   0  0  0  0  0  0  0  0  0  0  0  0
    3.6333   -4.2333    0.0000 O   0  0  0  0  0  0  0  0  0  0  0  0
   -2.4708   -4.9792    0.0000 C   0  0  0  0  0  0  0  0  0  0  0  0
    0.2417    0.5708    0.0000 C   0  0  0  0  0  0  0  0  0  0  0  0
   -3.5292   -0.4958    0.0000 C   0  0  0  0  0  0  0  0  0  0  0  0
   -2.8208   -2.4333    0.0000 C   0  0  0  0  0  0  0  0  0  0  0  0
   -0.4667    1.9792    0.0000 C   0  0  0  0  0  0  0  0  0  0  0  0
   -0.9375   -3.5125    0.0000 C   0  0  0  0  0  0  0  0  0  0  0  0
    0.1250   -4.1250    0.0000 C   0  0  0  0  0  0  0  0  0  0  0  0
   -0.2292   -1.0583    0.0000 C   0  0  0  0  0  0  0  0  0  0  0  0
    4.2458   -4.5917    0.0000 C   0  0  0  0  0  0  0  0  0  0  0  0
   -3.6958   -4.2625    0.0000 C   0  0  0  0  0  0  0  0  0  0  0  0
   -4.1417   -0.1417    0.0000 C   0  0  0  0  0  0  0  0  0  0  0  0
    4.8625   -4.2417    0.0000 C   0  0  0  0  0  0  0  0  0  0  0  0
    1.7917   -2.6417    0.0000 H   0  0  0  0  0  0  0  0  0  0  0  0
    0.2417   -0.1375    0.0000 H   0  0  0  0  0  0  0  0  0  0  0  0
   -0.7958   -4.0167    0.0000 H   0  0  0  0  0  0  0  0  0  0  0  0
  2  1  1  0
  3  8  1  0
  4  6  1  0
  5 21  1  0
  6  3  1  0
  7 14  1  0
  8  7  1  0
  9 13  1  0
 10  4  1  0
 11  9  1  0
 12  1  1  0
 13 25  1  0
 14  2  1  0
 15 18  1  0
 16  7  1  0
 17 23  1  0
 18 17  1  0
 19  2  1  0
 20 17  1  0
 21 10  1  0
 22 24  1  0
  3 23  1  6
 24 20  1  0
 25 27  1  0
  1 26  1  6
 27 16  1  0
 28 12  1  0
 29 26  1  0
 12 30  1  1
 31  4  2  0
 32 43  1  0
 33 28  1  0
 34 13  2  0
 35 29  2  0
 36 32  2  0
  5 37  1  1
 16 38  1  1
 11 39  1  1
 15 40  1  1
 22 41  1  1
 42 29  1  0
 43 42  1  0
 44  5  1  0
  6 45  1  1
  8 46  1  6
  9 47  1  1
 48 32  1  0
 49 15  1  0
 50 16  1  0
 21 51  1  6
 24 52  1  6
 25 53  1  6
 54 30  1  0
 55 30  1  0
 33 56  1  1
 57 48  1  0
 58 40  1  0
 59 51  1  0
 60 57  1  0
  2 61  1  6
  7 62  1  1
 17 63  1  6
 33 19  1  0
  5 11  1  0
 22 15  1  0
M  END

> <chembl_id>
CHEMBL1200688

> <chembl_pref_name>
ERYTHROMYCIN ETHYLSUCCINATE


$$$$

     RDKit          2D

 72 73  0  0  0  0  0  0  0  0999 V2000
    7.5791   -6.1993    0.0000 S   0  0  0  0  0  0  0  0  0  0  0  0
    7.1613   -5.4706    0.0000 O   0  0  0  0  0  0  0  0  0  0  0  0
    7.9872   -5.4706    0.0000 O   0  0  0  0  0  0  0  0  0  0  0  0
    6.8649   -6.6074    0.0000 O   0  0  0  0  0  0  0  0  0  0  0  0
    8.2933   -6.6074    0.0000 O   0  0  0  0  0  0  0  0  0  0  0  0
    9.0074   -6.1993    0.0000 C   0  0  0  0  0  0  0  0  0  0  0  0
    9.7216   -6.6074    0.0000 C   0  0  0  0  0  0  0  0  0  0  0  0
    6.8649   -7.4382    0.0000 C   0  0  0  0  0  0  0  0  0  0  0  0
    7.5791   -7.8463    0.0000 C   0  0  0  0  0  0  0  0  0  0  0  0
   10.4407   -7.8463    0.0000 C   0  0  0  0  0  0  0  0  0  0  0  0
    9.7216   -7.4382    0.0000 C   0  0  0  0  0  0  0  0  0  0  0  0
    9.0074   -7.8463    0.0000 C   0  0  0  0  0  0  0  0  0  0  0  0
    8.2933   -7.4382    0.0000 C   0  0  0  0  0  0  0  0  0  0  0  0
   10.4407   -6.1993    0.0000 C   0  0  0  0  0  0  0  0  0  0  0  0
   11.1549   -6.6074    0.0000 C   0  0  0  0  0  0  0  0  0  0  0  0
   11.1549   -7.4382    0.0000 C   0  0  0  0  0  0  0  0  0  0  0  0
    6.1458   -7.8463    0.0000 C   0  0  0  0  0  0  0  0  0  0  0  0
    4.7272   -7.6908    0.0000 C   0  0  0  0  0  0  0  0  0  0  0  0
    2.0891   -6.4131    0.0000 C   0  0  0  0  0  0  0  0  0  0  0  0
    0.6608   -6.4180    0.0000 C   0  0  0  0  0  0  0  0  0  0  0  0
   -0.0534   -4.3629    0.0000 C   0  0  0  0  0  0  0  0  0  0  0  0
    1.3750   -6.8261    0.0000 C   0  0  0  0  0  0  0  0  0  0  0  0
    4.3191   -8.4002    0.0000 C   0  0  0  0  0  0  0  0  0  0  0  0
    2.8033   -5.1791    0.0000 C   0  0  0  0  0  0  0  0  0  0  0  0
    2.0891   -5.5872    0.0000 C   0  0  0  0  0  0  0  0  0  0  0  0
    0.6608   -3.1386    0.0000 C   0  0  0  0  0  0  0  0  0  0  0  0
    0.6608   -5.5969    0.0000 O   0  0  0  0  0  0  0  0  0  0  0  0
    0.6608   -3.9548    0.0000 C   0  0  0  0  0  0  0  0  0  0  0  0
    1.3750   -2.7255    0.0000 C   0  0  0  0  0  0  0  0  0  0  0  0
    4.7223   -6.5929    0.0000 O   0  0  0  0  0  0  0  0  0  0  0  0
    0.4713  -10.0034    0.0000 C   0  0  0  0  0  0  0  0  0  0  0  0
    3.4884   -8.4002    0.0000 C   0  0  0  0  0  0  0  0  0  0  0  0
    2.8033   -4.3629    0.0000 C   0  0  0  0  0  0  0  0  0  0  0  0
    1.7053   -9.2940    0.0000 C   0  0  0  0  0  0  0  0  0  0  0  0
    1.2972  -10.0034    0.0000 C   0  0  0  0  0  0  0  0  0  0  0  0
    4.3191   -6.9766    0.0000 O   0  0  0  0  0  0  0  0  0  0  0  0
    1.2972   -8.5799    0.0000 O   0  0  0  0  0  0  0  0  0  0  0  0
   -0.0534   -5.1838    0.0000 C   0  0  0  0  0  0  0  0  0  0  0  0
    0.0534   -9.2940    0.0000 C   0  0  0  0  0  0  0  0  0  0  0  0
    2.8033   -6.8212    0.0000 O   0  0  0  0  0  0  0  0  0  0  0  0
    0.4713   -8.5799    0.0000 C   0  0  0  0  0  0  0  0  0  0  0  0
    2.0891   -3.1337    0.0000 C   0  0  0  0  0  0  0  0  0  0  0  0
    2.0891   -3.9548    0.0000 C   0  0  0  0  0  0  0  0  0  0  0  0
    3.0754   -7.6908    0.0000 C   0  0  0  0  0  0  0  0  0  0  0  0
    3.0803   -9.1191    0.0000 N   0  0  0  0  0  0  0  0  0  0  0  0
   -0.0534   -6.8308    0.0000 O   0  0  0  0  0  0  0  0  0  0  0  0
    3.4884   -6.9766    0.0000 C   0  0  0  0  0  0  0  0  0  0  0  0
    1.3701   -1.8997    0.0000 O   0  0  0  0  0  0  0  0  0  0  0  0
   -0.4664   -3.6438    0.0000 O   0  0  0  0  0  0  0  0  0  0  0  0
    4.7272   -9.1191    0.0000 O   0  0  0  0  0  0  0  0  0  0  0  0
    3.2114   -3.6438    0.0000 O   0  0  0  0  0  0  0  0  0  0  0  0
    1.3750   -4.3725    0.0000 O   0  0  0  0  0  0  0  0  0  0  0  0
   -0.2478  -10.4115    0.0000 O   0  0  0  0  0  0  0  0  0  0  0  0
   -0.7725   -9.2940    0.0000 O   0  0  0  0  0  0  0  0  0  0  0  0
   -0.8745   -4.3629    0.0000 C   0  0  0  0  0  0  0  0  0  0  0  0
    1.3797   -7.6519    0.0000 C   0  0  0  0  0  0  0  0  0  0  0  0
    1.3701   -5.1742    0.0000 C   0  0  0  0  0  0  0  0  0  0  0  0
   -0.0534   -2.7255    0.0000 C   0  0  0  0  0  0  0  0  0  0  0  0
    0.4664  -10.8342    0.0000 C   0  0  0  0  0  0  0  0  0  0  0  0
    3.6292   -4.3629    0.0000 C   0  0  0  0  0  0  0  0  0  0  0  0
   -0.7676   -5.6017    0.0000 C   0  0  0  0  0  0  0  0  0  0  0  0
    0.0583   -7.8609    0.0000 C   0  0  0  0  0  0  0  0  0  0  0  0
    2.8033   -2.7159    0.0000 C   0  0  0  0  0  0  0  0  0  0  0  0
    3.4931   -9.8333    0.0000 C   0  0  0  0  0  0  0  0  0  0  0  0
    2.2542   -9.1191    0.0000 C   0  0  0  0  0  0  0  0  0  0  0  0
    3.0803   -6.2576    0.0000 C   0  0  0  0  0  0  0  0  0  0  0  0
   -0.9620   -9.9936    0.0000 C   0  0  0  0  0  0  0  0  0  0  0  0
   -1.4818   -5.1887    0.0000 C   0  0  0  0  0  0  0  0  0  0  0  0
    5.5522   -9.1191    0.0000 C   0  0  0  0  0  0  0  0  0  0  0  0
    5.9647   -9.8336    0.0000 C   0  0  0  0  0  0  0  0  0  0  0  0
    5.9647   -8.4047    0.0000 O   0  0  0  0  0  0  0  0  0  0  0  0
    6.7897   -9.8336    0.0000 C   0  0  0  0  0  0  0  0  0  0  0  0
  2  1  2  0
  3  1  2  0
  4  1  1  0
  5  1  1  0
  6  5  1  0
  7  6  1  0
  8  9  1  0
  9 13  1  0
 10 16  1  0
 11 10  1  0
 12 11  1  0
 13 12  1  0
 14  7  1  0
 15 14  1  0
 16 15  1  0
 17  8  1  0
 19 25  1  0
 20 22  1  0
 21 28  1  0
 22 19  1  0
 23 18  1  0
 24 30  1  6
 25 24  1  0
 26 29  1  0
 27 20  1  0
 28 26  1  0
 29 42  1  0
 18 30  1  1
 31 35  1  0
 32 23  1  0
 33 24  1  0
 34 40  1  1
 35 34  1  0
 36 18  1  0
 37 34  1  0
 38 27  1  0
 39 41  1  0
 19 40  1  6
 41 37  1  0
 42 43  1  0
 43 33  1  0
 44 47  1  0
 32 45  1  1
 46 20  2  0
 47 36  1  0
 48 29  2  0
 21 49  1  1
 23 50  1  6
 33 51  1  1
 28 52  1  1
 31 53  1  0
 39 54  1  1
 55 21  1  0
 22 56  1  1
 25 57  1  6
 26 58  1  1
 31 59  1  6
 60 33  1  0
 38 61  1  6
 41 62  1  6
 42 63  1  6
 64 45  1  0
 65 45  1  0
 47 66  1  1
 67 53  1  0
 68 61  1  0
 44 32  1  0
 38 21  1  0
 39 31  1  0
 50 69  1  0
 69 70  1  0
 69 71  2  0
 70 72  1  0
M  END

> <chembl_id>
CHEMBL2218877

> <chembl_pref_name>
ERYTHROMYCIN ESTOLATE


$$$$

     RDKit          2D

 69 70  0  0  0  0  0  0  0  0999 V2000
    8.6824   -6.4159    0.0000 C   0  0  0  0  0  0  0  0  0  0  0  0
    9.4006   -6.8333    0.0000 C   0  0  0  0  0  0  0  0  0  0  0  0
    7.9689   -6.8333    0.0000 C   0  0  0  0  0  0  0  0  0  0  0  0
    7.2506   -6.4159    0.0000 C   0  0  0  0  0  0  0  0  0  0  0  0
   10.1189   -6.4159    0.0000 C   0  0  0  0  0  0  0  0  0  0  0  0
    6.5421   -6.8333    0.0000 C   0  0  0  0  0  0  0  0  0  0  0  0
   10.1189   -5.5860    0.0000 O   0  0  0  0  0  0  0  0  0  0  0  0
    9.4006   -7.6583    0.0000 O   0  0  0  0  0  0  0  0  0  0  0  0
    8.6824   -5.5860    0.0000 O   0  0  0  0  0  0  0  0  0  0  0  0
    7.9689   -7.6583    0.0000 O   0  0  0  0  0  0  0  0  0  0  0  0
    7.2506   -5.5860    0.0000 O   0  0  0  0  0  0  0  0  0  0  0  0
   10.8274   -6.8333    0.0000 O   0  0  0  0  0  0  0  0  0  0  0  0
    6.5421   -7.6583    0.0000 O   0  0  0  0  0  0  0  0  0  0  0  0
    5.1153   -6.8333    0.0000 O   0  0  0  0  0  0  0  0  0  0  0  0
    5.8238   -6.4159    0.0000 C   0  0  0  0  0  0  0  0  0  0  0  0
    3.1545   -8.5415    0.0000 C   0  0  0  0  0  0  0  0  0  0  0  0
    0.5145   -7.2652    0.0000 C   0  0  0  0  0  0  0  0  0  0  0  0
   -0.9027   -7.2701    0.0000 C   0  0  0  0  0  0  0  0  0  0  0  0
   -1.6161   -5.2172    0.0000 C   0  0  0  0  0  0  0  0  0  0  0  0
   -0.1893   -7.6778    0.0000 C   0  0  0  0  0  0  0  0  0  0  0  0
    2.7421   -9.2502    0.0000 C   0  0  0  0  0  0  0  0  0  0  0  0
    1.2279   -6.0325    0.0000 C   0  0  0  0  0  0  0  0  0  0  0  0
    0.5145   -6.4402    0.0000 C   0  0  0  0  0  0  0  0  0  0  0  0
   -0.9027   -3.9942    0.0000 C   0  0  0  0  0  0  0  0  0  0  0  0
   -0.9027   -6.4499    0.0000 O   0  0  0  0  0  0  0  0  0  0  0  0
   -0.9027   -4.8095    0.0000 C   0  0  0  0  0  0  0  0  0  0  0  0
   -0.1989   -3.5816    0.0000 C   0  0  0  0  0  0  0  0  0  0  0  0
    3.1497   -7.4448    0.0000 O   0  0  0  0  0  0  0  0  0  0  0  0
   -1.1016  -10.8517    0.0000 C   0  0  0  0  0  0  0  0  0  0  0  0
    1.9219   -9.2502    0.0000 C   0  0  0  0  0  0  0  0  0  0  0  0
    1.2279   -5.2172    0.0000 C   0  0  0  0  0  0  0  0  0  0  0  0
    0.1359  -10.1431    0.0000 C   0  0  0  0  0  0  0  0  0  0  0  0
   -0.2717  -10.8517    0.0000 C   0  0  0  0  0  0  0  0  0  0  0  0
    2.7421   -7.8281    0.0000 O   0  0  0  0  0  0  0  0  0  0  0  0
   -0.2717   -9.4297    0.0000 O   0  0  0  0  0  0  0  0  0  0  0  0
   -1.6161   -6.0422    0.0000 C   0  0  0  0  0  0  0  0  0  0  0  0
   -1.5142  -10.1431    0.0000 C   0  0  0  0  0  0  0  0  0  0  0  0
    1.2327   -7.6729    0.0000 O   0  0  0  0  0  0  0  0  0  0  0  0
   -1.1016   -9.4297    0.0000 C   0  0  0  0  0  0  0  0  0  0  0  0
    0.5145   -3.9893    0.0000 C   0  0  0  0  0  0  0  0  0  0  0  0
    0.5145   -4.8095    0.0000 C   0  0  0  0  0  0  0  0  0  0  0  0
    1.5045   -8.5415    0.0000 C   0  0  0  0  0  0  0  0  0  0  0  0
    1.5093   -9.9684    0.0000 N   0  0  0  0  0  0  0  0  0  0  0  0
   -1.6210   -7.6825    0.0000 O   0  0  0  0  0  0  0  0  0  0  0  0
    1.9219   -7.8281    0.0000 C   0  0  0  0  0  0  0  0  0  0  0  0
   -0.1989   -2.7566    0.0000 O   0  0  0  0  0  0  0  0  0  0  0  0
   -2.0334   -4.4989    0.0000 O   0  0  0  0  0  0  0  0  0  0  0  0
    3.1594   -9.9684    0.0000 O   0  0  0  0  0  0  0  0  0  0  0  0
    1.6356   -4.4989    0.0000 O   0  0  0  0  0  0  0  0  0  0  0  0
   -0.1942   -5.2269    0.0000 O   0  0  0  0  0  0  0  0  0  0  0  0
   -1.8150  -11.2594    0.0000 O   0  0  0  0  0  0  0  0  0  0  0  0
   -2.3392  -10.1431    0.0000 O   0  0  0  0  0  0  0  0  0  0  0  0
   -2.4411   -5.2172    0.0000 C   0  0  0  0  0  0  0  0  0  0  0  0
   -0.1893   -8.5028    0.0000 C   0  0  0  0  0  0  0  0  0  0  0  0
   -0.1989   -6.0276    0.0000 C   0  0  0  0  0  0  0  0  0  0  0  0
   -1.6210   -3.5816    0.0000 C   0  0  0  0  0  0  0  0  0  0  0  0
   -1.1016  -11.6816    0.0000 C   0  0  0  0  0  0  0  0  0  0  0  0
    2.0578   -5.2172    0.0000 C   0  0  0  0  0  0  0  0  0  0  0  0
   -2.3344   -6.4548    0.0000 C   0  0  0  0  0  0  0  0  0  0  0  0
   -1.5093   -8.7115    0.0000 C   0  0  0  0  0  0  0  0  0  0  0  0
    1.2327   -3.5720    0.0000 C   0  0  0  0  0  0  0  0  0  0  0  0
    0.6843   -9.9684    0.0000 C   0  0  0  0  0  0  0  0  0  0  0  0
    1.9219  -10.6818    0.0000 C   0  0  0  0  0  0  0  0  0  0  0  0
    1.5093   -7.1099    0.0000 C   0  0  0  0  0  0  0  0  0  0  0  0
   -2.5285  -10.8419    0.0000 C   0  0  0  0  0  0  0  0  0  0  0  0
   -3.0478   -6.0422    0.0000 C   0  0  0  0  0  0  0  0  0  0  0  0
    3.8632   -8.9541    0.0000 H   0  0  0  0  0  0  0  0  0  0  0  0
    2.0578   -6.0325    0.0000 H   0  0  0  0  0  0  0  0  0  0  0  0
    0.8493  -10.5556    0.0000 H   0  0  0  0  0  0  0  0  0  0  0  0
  2  1  1  0
  3  1  1  0
  4  3  1  0
  5  2  1  0
  6  4  1  0
  7  5  2  0
  2  8  1  6
  1  9  1  1
  3 10  1  1
  4 11  1  1
 12  5  1  0
  6 13  1  6
 14 15  1  0
 15  6  1  0
 17 23  1  0
 18 20  1  0
 19 26  1  0
 20 17  1  0
 21 16  1  0
 22 28  1  0
 23 22  1  0
 24 27  1  0
 25 18  1  0
 26 24  1  0
 27 40  1  0
 28 16  1  0
 29 33  1  0
 30 21  1  0
 31 22  1  0
 32 38  1  0
 33 32  1  0
 34 16  1  0
 35 32  1  0
 36 25  1  0
 37 39  1  0
 17 38  1  6
 39 35  1  0
 40 41  1  0
 41 31  1  0
 42 45  1  0
 30 43  1  1
 44 18  2  0
 45 34  1  0
 46 27  2  0
 19 47  1  1
 21 48  1  6
 31 49  1  1
 26 50  1  1
 29 51  1  1
 37 52  1  1
 53 19  1  0
 20 54  1  1
 23 55  1  6
 24 56  1  1
 57 29  1  0
 58 31  1  0
 36 59  1  6
 39 60  1  6
 40 61  1  6
 62 43  1  0
 63 43  1  0
 45 64  1  1
 65 51  1  0
 66 59  1  0
 16 67  1  6
 22 68  1  1
 32 69  1  6
 42 30  1  0
 36 19  1  0
 37 29  1  0
M  END

> <chembl_id>
CHEMBL3545060

> <chembl_pref_name>
ERYTHROMYCIN GLUCEPTATE


$$$$

     RDKit          2D

 54 56  0  0  0  0  0  0  0  0999 V2000
    3.1579   -8.5506    0.0000 C   0  0  0  0  0  0  0  0  0  0  0  0
    0.5150   -7.2729    0.0000 C   0  0  0  0  0  0  0  0  0  0  0  0
   -0.9037   -7.2778    0.0000 C   0  0  0  0  0  0  0  0  0  0  0  0
   -1.6178   -5.2228    0.0000 C   0  0  0  0  0  0  0  0  0  0  0  0
   -0.1895   -7.6860    0.0000 C   0  0  0  0  0  0  0  0  0  0  0  0
    2.7450   -9.2600    0.0000 C   0  0  0  0  0  0  0  0  0  0  0  0
    1.2292   -6.0389    0.0000 C   0  0  0  0  0  0  0  0  0  0  0  0
    0.5150   -6.4471    0.0000 C   0  0  0  0  0  0  0  0  0  0  0  0
   -0.9037   -3.9985    0.0000 C   0  0  0  0  0  0  0  0  0  0  0  0
   -0.9037   -6.4568    0.0000 O   0  0  0  0  0  0  0  0  0  0  0  0
   -0.9037   -4.8146    0.0000 C   0  0  0  0  0  0  0  0  0  0  0  0
   -0.1991   -3.5854    0.0000 C   0  0  0  0  0  0  0  0  0  0  0  0
    3.1531   -7.4527    0.0000 O   0  0  0  0  0  0  0  0  0  0  0  0
   -1.1028  -10.8633    0.0000 C   0  0  0  0  0  0  0  0  0  0  0  0
    1.9239   -9.2600    0.0000 C   0  0  0  0  0  0  0  0  0  0  0  0
    1.2292   -5.2228    0.0000 C   0  0  0  0  0  0  0  0  0  0  0  0
    0.1360  -10.1539    0.0000 C   0  0  0  0  0  0  0  0  0  0  0  0
   -0.2720  -10.8633    0.0000 C   0  0  0  0  0  0  0  0  0  0  0  0
    2.7450   -7.8364    0.0000 O   0  0  0  0  0  0  0  0  0  0  0  0
   -0.2720   -9.4397    0.0000 O   0  0  0  0  0  0  0  0  0  0  0  0
   -1.6178   -6.0486    0.0000 C   0  0  0  0  0  0  0  0  0  0  0  0
   -1.5158  -10.1539    0.0000 C   0  0  0  0  0  0  0  0  0  0  0  0
    1.2340   -7.6811    0.0000 O   0  0  0  0  0  0  0  0  0  0  0  0
   -1.1028   -9.4397    0.0000 C   0  0  0  0  0  0  0  0  0  0  0  0
    0.5150   -3.9935    0.0000 C   0  0  0  0  0  0  0  0  0  0  0  0
    0.5150   -4.8146    0.0000 C   0  0  0  0  0  0  0  0  0  0  0  0
    1.5061   -8.5506    0.0000 C   0  0  0  0  0  0  0  0  0  0  0  0
    1.5109   -9.9790    0.0000 N   0  0  0  0  0  0  0  0  0  0  0  0
   -1.6227   -7.6907    0.0000 O   0  0  0  0  0  0  0  0  0  0  0  0
    1.9239   -7.8364    0.0000 C   0  0  0  0  0  0  0  0  0  0  0  0
   -0.1991   -2.7595    0.0000 O   0  0  0  0  0  0  0  0  0  0  0  0
   -2.0356   -4.5037    0.0000 O   0  0  0  0  0  0  0  0  0  0  0  0
    3.1628   -9.9790    0.0000 O   0  0  0  0  0  0  0  0  0  0  0  0
    1.6373   -4.5037    0.0000 O   0  0  0  0  0  0  0  0  0  0  0  0
   -0.1944   -5.2325    0.0000 O   0  0  0  0  0  0  0  0  0  0  0  0
   -1.8169  -11.2714    0.0000 O   0  0  0  0  0  0  0  0  0  0  0  0
   -2.3417  -10.1539    0.0000 O   0  0  0  0  0  0  0  0  0  0  0  0
   -2.4437   -5.2228    0.0000 C   0  0  0  0  0  0  0  0  0  0  0  0
   -0.1895   -8.5119    0.0000 C   0  0  0  0  0  0  0  0  0  0  0  0
   -0.1991   -6.0340    0.0000 C   0  0  0  0  0  0  0  0  0  0  0  0
   -1.6227   -3.5854    0.0000 C   0  0  0  0  0  0  0  0  0  0  0  0
   -1.1028  -11.6940    0.0000 C   0  0  0  0  0  0  0  0  0  0  0  0
    2.0600   -5.2228    0.0000 C   0  0  0  0  0  0  0  0  0  0  0  0
   -2.3369   -6.4617    0.0000 C   0  0  0  0  0  0  0  0  0  0  0  0
   -1.5109   -8.7208    0.0000 C   0  0  0  0  0  0  0  0  0  0  0  0
    1.2340   -3.5758    0.0000 C   0  0  0  0  0  0  0  0  0  0  0  0
    0.6850   -9.9790    0.0000 C   0  0  0  0  0  0  0  0  0  0  0  0
    1.9239  -10.6932    0.0000 C   0  0  0  0  0  0  0  0  0  0  0  0
    1.5109   -7.1175    0.0000 C   0  0  0  0  0  0  0  0  0  0  0  0
   -2.5312  -10.8534    0.0000 C   0  0  0  0  0  0  0  0  0  0  0  0
   -3.0510   -6.0486    0.0000 C   0  0  0  0  0  0  0  0  0  0  0  0
    3.8673   -8.9636    0.0000 H   0  0  0  0  0  0  0  0  0  0  0  0
    2.0600   -6.0389    0.0000 H   0  0  0  0  0  0  0  0  0  0  0  0
    0.8502  -10.5668    0.0000 H   0  0  0  0  0  0  0  0  0  0  0  0
  2  8  1  0
  3  5  1  0
  4 11  1  0
  5  2  1  0
  6  1  1  0
  7 13  1  0
  8  7  1  0
  9 12  1  0
 10  3  1  0
 11  9  1  0
 12 25  1  0
 13  1  1  0
 14 18  1  0
 15  6  1  0
 16  7  1  0
 17 23  1  0
 18 17  1  0
 19  1  1  0
 20 17  1  0
 21 10  1  0
 22 24  1  0
  2 23  1  6
 24 20  1  0
 25 26  1  0
 26 16  1  0
 27 30  1  0
 15 28  1  1
 29  3  2  0
 30 19  1  0
 31 12  2  0
  4 32  1  1
  6 33  1  6
 16 34  1  1
 11 35  1  1
 14 36  1  1
 22 37  1  1
 38  4  1  0
  5 39  1  1
  8 40  1  6
  9 41  1  1
 42 14  1  0
 43 16  1  0
 21 44  1  6
 24 45  1  6
 25 46  1  6
 47 28  1  0
 48 28  1  0
 30 49  1  1
 50 36  1  0
 51 44  1  0
  1 52  1  6
  7 53  1  1
 17 54  1  6
 27 15  1  0
 21  4  1  0
 22 14  1  0
M  END

> <chembl_id>
CHEMBL532

> <chembl_pref_name>
ERYTHROMYCIN


$$$$

     RDKit          2D

 71 72  0  0  0  0  0  0  0  0999 V2000
    6.5000   -5.3167    0.0000 S   0  0  0  0  0  0  0  0  0  0  0  0
    6.1417   -4.6917    0.0000 O   0  0  0  0  0  0  0  0  0  0  0  0
    6.8500   -4.6917    0.0000 O   0  0  0  0  0  0  0  0  0  0  0  0
    5.8875   -5.6667    0.0000 O   0  0  0  0  0  0  0  0  0  0  0  0
    7.1125   -5.6667    0.0000 O   0  0  0  0  0  0  0  0  0  0  0  0
    7.7250   -5.3167    0.0000 C   0  0  0  0  0  0  0  0  0  0  0  0
    8.3375   -5.6667    0.0000 C   0  0  0  0  0  0  0  0  0  0  0  0
    5.8875   -6.3792    0.0000 C   0  0  0  0  0  0  0  0  0  0  0  0
    6.5000   -6.7292    0.0000 C   0  0  0  0  0  0  0  0  0  0  0  0
    8.9542   -6.7292    0.0000 C   0  0  0  0  0  0  0  0  0  0  0  0
    8.3375   -6.3792    0.0000 C   0  0  0  0  0  0  0  0  0  0  0  0
    7.7250   -6.7292    0.0000 C   0  0  0  0  0  0  0  0  0  0  0  0
    7.1125   -6.3792    0.0000 C   0  0  0  0  0  0  0  0  0  0  0  0
    8.9542   -5.3167    0.0000 C   0  0  0  0  0  0  0  0  0  0  0  0
    9.5667   -5.6667    0.0000 C   0  0  0  0  0  0  0  0  0  0  0  0
    9.5667   -6.3792    0.0000 C   0  0  0  0  0  0  0  0  0  0  0  0
    5.2708   -6.7292    0.0000 C   0  0  0  0  0  0  0  0  0  0  0  0
    4.0542   -6.5958    0.0000 C   0  0  0  0  0  0  0  0  0  0  0  0
    1.7917   -5.5000    0.0000 C   0  0  0  0  0  0  0  0  0  0  0  0
    0.5667   -5.5042    0.0000 C   0  0  0  0  0  0  0  0  0  0  0  0
   -0.0458   -3.7417    0.0000 C   0  0  0  0  0  0  0  0  0  0  0  0
    1.1792   -5.8542    0.0000 C   0  0  0  0  0  0  0  0  0  0  0  0
    3.7042   -7.2042    0.0000 C   0  0  0  0  0  0  0  0  0  0  0  0
    2.4042   -4.4417    0.0000 C   0  0  0  0  0  0  0  0  0  0  0  0
    1.7917   -4.7917    0.0000 C   0  0  0  0  0  0  0  0  0  0  0  0
    0.5667   -2.6917    0.0000 C   0  0  0  0  0  0  0  0  0  0  0  0
    0.5667   -4.8000    0.0000 O   0  0  0  0  0  0  0  0  0  0  0  0
    0.5667   -3.3917    0.0000 C   0  0  0  0  0  0  0  0  0  0  0  0
    1.1792   -2.3375    0.0000 C   0  0  0  0  0  0  0  0  0  0  0  0
    4.0500   -5.6542    0.0000 O   0  0  0  0  0  0  0  0  0  0  0  0
    0.4042   -8.5792    0.0000 C   0  0  0  0  0  0  0  0  0  0  0  0
    2.9917   -7.2042    0.0000 C   0  0  0  0  0  0  0  0  0  0  0  0
    2.4042   -3.7417    0.0000 C   0  0  0  0  0  0  0  0  0  0  0  0
    1.4625   -7.9708    0.0000 C   0  0  0  0  0  0  0  0  0  0  0  0
    1.1125   -8.5792    0.0000 C   0  0  0  0  0  0  0  0  0  0  0  0
    3.7042   -5.9833    0.0000 O   0  0  0  0  0  0  0  0  0  0  0  0
    1.1125   -7.3583    0.0000 O   0  0  0  0  0  0  0  0  0  0  0  0
   -0.0458   -4.4458    0.0000 C   0  0  0  0  0  0  0  0  0  0  0  0
    0.0458   -7.9708    0.0000 C   0  0  0  0  0  0  0  0  0  0  0  0
    2.4042   -5.8500    0.0000 O   0  0  0  0  0  0  0  0  0  0  0  0
    0.4042   -7.3583    0.0000 C   0  0  0  0  0  0  0  0  0  0  0  0
    1.7917   -2.6875    0.0000 C   0  0  0  0  0  0  0  0  0  0  0  0
    1.7917   -3.3917    0.0000 C   0  0  0  0  0  0  0  0  0  0  0  0
    2.6375   -6.5958    0.0000 C   0  0  0  0  0  0  0  0  0  0  0  0
    2.6417   -7.8208    0.0000 N   0  0  0  0  0  0  0  0  0  0  0  0
   -0.0458   -5.8583    0.0000 O   0  0  0  0  0  0  0  0  0  0  0  0
    2.9917   -5.9833    0.0000 C   0  0  0  0  0  0  0  0  0  0  0  0
    1.1750   -1.6292    0.0000 O   0  0  0  0  0  0  0  0  0  0  0  0
   -0.4000   -3.1250    0.0000 O   0  0  0  0  0  0  0  0  0  0  0  0
    4.0542   -7.8208    0.0000 O   0  0  0  0  0  0  0  0  0  0  0  0
    2.7542   -3.1250    0.0000 O   0  0  0  0  0  0  0  0  0  0  0  0
    1.1792   -3.7500    0.0000 O   0  0  0  0  0  0  0  0  0  0  0  0
   -0.2125   -8.9292    0.0000 O   0  0  0  0  0  0  0  0  0  0  0  0
   -0.6625   -7.9708    0.0000 O   0  0  0  0  0  0  0  0  0  0  0  0
   -0.7500   -3.7417    0.0000 C   0  0  0  0  0  0  0  0  0  0  0  0
    1.1833   -6.5625    0.0000 C   0  0  0  0  0  0  0  0  0  0  0  0
    1.1750   -4.4375    0.0000 C   0  0  0  0  0  0  0  0  0  0  0  0
   -0.0458   -2.3375    0.0000 C   0  0  0  0  0  0  0  0  0  0  0  0
    0.4000   -9.2917    0.0000 C   0  0  0  0  0  0  0  0  0  0  0  0
    3.1125   -3.7417    0.0000 C   0  0  0  0  0  0  0  0  0  0  0  0
   -0.6583   -4.8042    0.0000 C   0  0  0  0  0  0  0  0  0  0  0  0
    0.0500   -6.7417    0.0000 C   0  0  0  0  0  0  0  0  0  0  0  0
    2.4042   -2.3292    0.0000 C   0  0  0  0  0  0  0  0  0  0  0  0
    2.9958   -8.4333    0.0000 C   0  0  0  0  0  0  0  0  0  0  0  0
    1.9333   -7.8208    0.0000 C   0  0  0  0  0  0  0  0  0  0  0  0
    2.6417   -5.3667    0.0000 C   0  0  0  0  0  0  0  0  0  0  0  0
   -0.8250   -8.5708    0.0000 C   0  0  0  0  0  0  0  0  0  0  0  0
   -1.2708   -4.4500    0.0000 C   0  0  0  0  0  0  0  0  0  0  0  0
    4.6667   -6.9500    0.0000 H   0  0  0  0  0  0  0  0  0  0  0  0
    3.1125   -4.4417    0.0000 H   0  0  0  0  0  0  0  0  0  0  0  0
    2.0708   -8.3250    0.0000 H   0  0  0  0  0  0  0  0  0  0  0  0
  2  1  2  0
  3  1  2  0
  4  1  1  0
  5  1  1  0
  6  5  1  0
  7  6  1  0
  8  9  1  0
  9 13  1  0
 10 16  1  0
 11 10  1  0
 12 11  1  0
 13 12  1  0
 14  7  1  0
 15 14  1  0
 16 15  1  0
 17  8  1  0
 19 25  1  0
 20 22  1  0
 21 28  1  0
 22 19  1  0
 23 18  1  0
 24 30  1  0
 25 24  1  0
 26 29  1  0
 27 20  1  0
 28 26  1  0
 29 42  1  0
 30 18  1  0
 31 35  1  0
 32 23  1  0
 33 24  1  0
 34 40  1  0
 35 34  1  0
 36 18  1  0
 37 34  1  0
 38 27  1  0
 39 41  1  0
 19 40  1  6
 41 37  1  0
 42 43  1  0
 43 33  1  0
 44 47  1  0
 32 45  1  1
 46 20  2  0
 47 36  1  0
 48 29  2  0
 21 49  1  1
 23 50  1  6
 33 51  1  1
 28 52  1  1
 31 53  1  1
 39 54  1  1
 55 21  1  0
 22 56  1  1
 25 57  1  6
 26 58  1  1
 59 31  1  0
 60 33  1  0
 38 61  1  6
 41 62  1  6
 42 63  1  6
 64 45  1  0
 65 45  1  0
 47 66  1  1
 67 53  1  0
 68 61  1  0
 18 69  1  6
 24 70  1  1
 34 71  1  6
 44 32  1  0
 38 21  1  0
 39 31  1  0
M  END

> <chembl_id>
CHEMBL1200476

> <chembl_pref_name>
None


$$$$

     RDKit          2D

 74 75  0  0  0  0  0  0  0  0999 V2000
    3.0479   -0.9079    0.0000 C   0  0  0  0  0  0  0  0  0  0  0  0
    2.7488   -1.4344    0.0000 O   0  0  0  0  0  0  0  0  0  0  0  0
    2.7944   -0.4333    0.0000 O   0  0  0  0  0  0  0  0  0  0  0  0
    3.7499   -0.9079    0.0000 C   0  0  0  0  0  0  0  0  0  0  0  0
    4.0815   -1.3954    0.0000 C   0  0  0  0  0  0  0  0  0  0  0  0
    3.2234    0.2037    0.0000 C   0  0  0  0  0  0  0  0  0  0  0  0
    3.8084    0.2037    0.0000 C   0  0  0  0  0  0  0  0  0  0  0  0
    5.9146   -1.2784    0.0000 C   0  0  0  0  0  0  0  0  0  0  0  0
    5.8300   -2.4029    0.0000 C   0  0  0  0  0  0  0  0  0  0  0  0
    5.6026   -0.8104    0.0000 C   0  0  0  0  0  0  0  0  0  0  0  0
    6.4021   -2.4290    0.0000 C   0  0  0  0  0  0  0  0  0  0  0  0
    5.0110   -0.8104    0.0000 C   0  0  0  0  0  0  0  0  0  0  0  0
    5.5050   -1.9024    0.0000 C   0  0  0  0  0  0  0  0  0  0  0  0
    4.7055   -0.3033    0.0000 C   0  0  0  0  0  0  0  0  0  0  0  0
    6.8116   -1.7659    0.0000 C   0  0  0  0  0  0  0  0  0  0  0  0
    4.9200   -1.8829    0.0000 C   0  0  0  0  0  0  0  0  0  0  0  0
    4.1205   -0.3033    0.0000 C   0  0  0  0  0  0  0  0  0  0  0  0
    6.4801   -1.2784    0.0000 C   0  0  0  0  0  0  0  0  0  0  0  0
    4.6209   -1.3954    0.0000 C   0  0  0  0  0  0  0  0  0  0  0  0
    2.9504    0.6783    0.0000 C   0  0  0  0  0  0  0  0  0  0  0  0
    0.0642   -0.5373    0.0000 C   0  0  0  0  0  0  0  0  0  0  0  0
   -0.1179   -1.2784    0.0000 C   0  0  0  0  0  0  0  0  0  0  0  0
   -3.0170   -3.9045    0.0000 C   0  0  0  0  0  0  0  0  0  0  0  0
   -4.8111   -3.9306    0.0000 C   0  0  0  0  0  0  0  0  0  0  0  0
   -5.6757   -1.4539    0.0000 C   0  0  0  0  0  0  0  0  0  0  0  0
   -3.8946   -4.3986    0.0000 C   0  0  0  0  0  0  0  0  0  0  0  0
   -2.1850   -2.4290    0.0000 C   0  0  0  0  0  0  0  0  0  0  0  0
   -3.0170   -3.0465    0.0000 C   0  0  0  0  0  0  0  0  0  0  0  0
   -4.8306    0.0672    0.0000 C   0  0  0  0  0  0  0  0  0  0  0  0
   -4.8111   -2.9489    0.0000 O   0  0  0  0  0  0  0  0  0  0  0  0
   -4.8306   -0.7843    0.0000 C   0  0  0  0  0  0  0  0  0  0  0  0
    0.8767   -0.3943    0.0000 C   0  0  0  0  0  0  0  0  0  0  0  0
   -4.0181    0.6393    0.0000 C   0  0  0  0  0  0  0  0  0  0  0  0
   -1.0669   -1.9024    0.0000 O   0  0  0  0  0  0  0  0  0  0  0  0
   -0.1503   -3.9045    0.0000 C   0  0  0  0  0  0  0  0  0  0  0  0
   -2.1850   -1.4344    0.0000 C   0  0  0  0  0  0  0  0  0  0  0  0
   -1.2814   -4.5480    0.0000 C   0  0  0  0  0  0  0  0  0  0  0  0
   -0.9174   -3.8721    0.0000 C   0  0  0  0  0  0  0  0  0  0  0  0
    0.3762   -1.8634    0.0000 O   0  0  0  0  0  0  0  0  0  0  0  0
   -0.9174   -5.1981    0.0000 O   0  0  0  0  0  0  0  0  0  0  0  0
   -5.6757   -2.4809    0.0000 C   0  0  0  0  0  0  0  0  0  0  0  0
    0.2202   -4.5871    0.0000 C   0  0  0  0  0  0  0  0  0  0  0  0
   -2.1460   -4.0866    0.0000 O   0  0  0  0  0  0  0  0  0  0  0  0
   -0.1179   -5.1981    0.0000 C   0  0  0  0  0  0  0  0  0  0  0  0
   -3.0821    0.0933    0.0000 C   0  0  0  0  0  0  0  0  0  0  0  0
    0.0057    0.3207    0.0000 O   0  0  0  0  0  0  0  0  0  0  0  0
   -3.0821   -0.7843    0.0000 C   0  0  0  0  0  0  0  0  0  0  0  0
    1.3837   -0.9664    0.0000 C   0  0  0  0  0  0  0  0  0  0  0  0
    0.8182    1.2438    0.0000 C   0  0  0  0  0  0  0  0  0  0  0  0
    1.4293    0.3402    0.0000 N   0  0  0  0  0  0  0  0  0  0  0  0
   -5.3637   -4.5156    0.0000 O   0  0  0  0  0  0  0  0  0  0  0  0
    1.0978   -1.7269    0.0000 C   0  0  0  0  0  0  0  0  0  0  0  0
   -4.0181    1.4973    0.0000 O   0  0  0  0  0  0  0  0  0  0  0  0
    1.6828    1.4713    0.0000 O   0  0  0  0  0  0  0  0  0  0  0  0
   -6.6443   -1.0573    0.0000 O   0  0  0  0  0  0  0  0  0  0  0  0
   -2.1005   -0.1278    0.0000 O   0  0  0  0  0  0  0  0  0  0  0  0
   -3.9401   -1.2979    0.0000 O   0  0  0  0  0  0  0  0  0  0  0  0
   -0.3258   -2.9684    0.0000 O   0  0  0  0  0  0  0  0  0  0  0  0
    1.3123   -4.5156    0.0000 O   0  0  0  0  0  0  0  0  0  0  0  0
   -6.7223   -2.2730    0.0000 C   0  0  0  0  0  0  0  0  0  0  0  0
   -3.8946   -5.3281    0.0000 C   0  0  0  0  0  0  0  0  0  0  0  0
   -3.7646   -2.3510    0.0000 C   0  0  0  0  0  0  0  0  0  0  0  0
   -5.7082    0.6588    0.0000 C   0  0  0  0  0  0  0  0  0  0  0  0
    0.9222   -3.6900    0.0000 C   0  0  0  0  0  0  0  0  0  0  0  0
   -1.3399   -0.7843    0.0000 C   0  0  0  0  0  0  0  0  0  0  0  0
   -6.2152   -3.2220    0.0000 C   0  0  0  0  0  0  0  0  0  0  0  0
    0.8767   -5.3932    0.0000 C   0  0  0  0  0  0  0  0  0  0  0  0
   -2.1005    0.9838    0.0000 C   0  0  0  0  0  0  0  0  0  0  0  0
    0.3177    1.8613    0.0000 C   0  0  0  0  0  0  0  0  0  0  0  0
    0.9612    0.7302    0.0000 C   0  0  0  0  0  0  0  0  0  0  0  0
    2.1118    0.5742    0.0000 C   0  0  0  0  0  0  0  0  0  0  0  0
    1.7737   -2.5070    0.0000 C   0  0  0  0  0  0  0  0  0  0  0  0
   -1.0279   -2.5850    0.0000 C   0  0  0  0  0  0  0  0  0  0  0  0
   -6.6443   -3.9306    0.0000 C   0  0  0  0  0  0  0  0  0  0  0  0
  2  1  2  0
  3  1  1  0
  4  1  1  0
  5  4  1  0
  6  7  1  0
  7 17  1  0
  8 18  1  0
  9 13  1  0
 10  8  1  0
 11  9  1  0
 12 10  1  0
 13 16  1  0
 14 12  1  0
 15 11  1  0
 16 19  1  0
 17 14  1  0
 18 15  1  0
 19  5  1  0
 20  6  1  0
 22 21  1  0
 23 28  1  0
 24 26  1  0
 25 31  1  0
 26 23  1  0
 27 34  1  6
 28 27  1  0
 29 33  1  0
 30 24  1  0
 31 29  1  0
 32 21  1  0
 33 45  1  0
 22 34  1  1
 35 38  1  0
 36 27  1  0
 37 43  1  1
 38 37  1  0
 39 22  1  0
 40 37  1  0
 41 30  1  0
 42 35  1  0
 23 43  1  6
 44 40  1  0
 45 47  1  0
 21 46  1  6
 47 36  1  0
 48 32  1  0
 49 46  1  0
 32 50  1  1
 51 24  2  0
 52 48  1  0
 53 33  2  0
 54 49  2  0
 25 55  1  1
 36 56  1  1
 31 57  1  1
 35 58  1  1
 42 59  1  1
 25 60  1  6
 26 61  1  1
 28 62  1  6
 29 63  1  1
 35 64  1  6
 36 65  1  6
 41 66  1  6
 44 67  1  6
 45 68  1  6
 69 49  1  0
 70 50  1  0
 71 50  1  0
 52 72  1  1
 73 58  1  0
 74 66  1  0
 39 52  1  0
 41 25  1  0
 44 42  1  0
M  END

> <chembl_id>
CHEMBL1908310

> <chembl_pref_name>
ERYTHROMYCIN ACISTRATE


$$$$

     RDKit          2D

 55 57  0  0  1  0  0  0  0  0999 V2000
    4.7272   -7.6908    0.0000 C   0  0  0  0  0  0  0  0  0  0  0  0
    2.0891   -6.4131    0.0000 C   0  0  0  0  0  0  0  0  0  0  0  0
    0.6608   -6.4180    0.0000 C   0  0  0  0  0  0  0  0  0  0  0  0
   -0.0534   -4.3629    0.0000 C   0  0  0  0  0  0  0  0  0  0  0  0
    1.3750   -6.8261    0.0000 C   0  0  0  0  0  0  0  0  0  0  0  0
    4.3191   -8.4002    0.0000 C   0  0  0  0  0  0  0  0  0  0  0  0
    2.8033   -5.1791    0.0000 C   0  0  0  0  0  0  0  0  0  0  0  0
    2.0891   -5.5872    0.0000 C   0  0  0  0  0  0  0  0  0  0  0  0
    0.6608   -3.1386    0.0000 C   0  0  0  0  0  0  0  0  0  0  0  0
    0.6608   -5.5969    0.0000 O   0  0  0  0  0  0  0  0  0  0  0  0
    0.6608   -3.9548    0.0000 C   0  0  0  0  0  0  0  0  0  0  0  0
    1.3750   -2.7255    0.0000 C   0  0  0  0  0  0  0  0  0  0  0  0
    4.7223   -6.5929    0.0000 O   0  0  0  0  0  0  0  0  0  0  0  0
    0.4713  -10.0034    0.0000 C   0  0  0  0  0  0  0  0  0  0  0  0
    3.4884   -8.4002    0.0000 C   0  0  0  0  0  0  0  0  0  0  0  0
    2.8033   -4.3629    0.0000 C   0  0  0  0  0  0  0  0  0  0  0  0
    1.7053   -9.2940    0.0000 C   0  0  0  0  0  0  0  0  0  0  0  0
    1.2972  -10.0034    0.0000 C   0  0  0  0  0  0  0  0  0  0  0  0
    4.3191   -6.9766    0.0000 O   0  0  0  0  0  0  0  0  0  0  0  0
    1.2972   -8.5799    0.0000 O   0  0  0  0  0  0  0  0  0  0  0  0
   -0.0534   -5.1838    0.0000 C   0  0  0  0  0  0  0  0  0  0  0  0
    0.0534   -9.2940    0.0000 C   0  0  0  0  0  0  0  0  0  0  0  0
    2.8033   -6.8212    0.0000 O   0  0  0  0  0  0  0  0  0  0  0  0
    0.4713   -8.5799    0.0000 C   0  0  0  0  0  0  0  0  0  0  0  0
    2.0891   -3.1337    0.0000 C   0  0  0  0  0  0  0  0  0  0  0  0
    2.0891   -3.9548    0.0000 C   0  0  0  0  0  0  0  0  0  0  0  0
    3.0754   -7.6908    0.0000 C   0  0  0  0  0  0  0  0  0  0  0  0
    3.0803   -9.1191    0.0000 N   0  0  0  0  0  0  0  0  0  0  0  0
   -0.0534   -6.8308    0.0000 O   0  0  0  0  0  0  0  0  0  0  0  0
    3.4884   -6.9766    0.0000 C   0  0  0  0  0  0  0  0  0  0  0  0
    1.3701   -1.8997    0.0000 O   0  0  0  0  0  0  0  0  0  0  0  0
   -0.4664   -3.6438    0.0000 O   0  0  0  0  0  0  0  0  0  0  0  0
    4.7272   -9.1191    0.0000 O   0  0  0  0  0  0  0  0  0  0  0  0
    3.2114   -3.6438    0.0000 O   0  0  0  0  0  0  0  0  0  0  0  0
    1.3750   -4.3725    0.0000 O   0  0  0  0  0  0  0  0  0  0  0  0
   -0.2478  -10.4115    0.0000 O   0  0  0  0  0  0  0  0  0  0  0  0
   -0.7725   -9.2940    0.0000 O   0  0  0  0  0  0  0  0  0  0  0  0
   -0.8745   -4.3629    0.0000 C   0  0  0  0  0  0  0  0  0  0  0  0
    1.3797   -7.6519    0.0000 C   0  0  0  0  0  0  0  0  0  0  0  0
    1.3701   -5.1742    0.0000 C   0  0  0  0  0  0  0  0  0  0  0  0
   -0.0534   -2.7255    0.0000 C   0  0  0  0  0  0  0  0  0  0  0  0
    0.4664  -10.8342    0.0000 C   0  0  0  0  0  0  0  0  0  0  0  0
    3.6292   -4.3629    0.0000 C   0  0  0  0  0  0  0  0  0  0  0  0
   -0.7676   -5.6017    0.0000 C   0  0  0  0  0  0  0  0  0  0  0  0
    0.0583   -7.8609    0.0000 C   0  0  0  0  0  0  0  0  0  0  0  0
    2.8033   -2.7159    0.0000 C   0  0  0  0  0  0  0  0  0  0  0  0
    3.4931   -9.8333    0.0000 C   0  0  0  0  0  0  0  0  0  0  0  0
    2.2542   -9.1191    0.0000 C   0  0  0  0  0  0  0  0  0  0  0  0
    3.0803   -6.2576    0.0000 C   0  0  0  0  0  0  0  0  0  0  0  0
   -0.9620   -9.9936    0.0000 C   0  0  0  0  0  0  0  0  0  0  0  0
   -1.4818   -5.1887    0.0000 C   0  0  0  0  0  0  0  0  0  0  0  0
    5.5522   -9.1191    0.0000 C   0  0  0  0  0  0  0  0  0  0  0  0
    5.9647   -9.8336    0.0000 C   0  0  0  0  0  0  0  0  0  0  0  0
    5.9647   -8.4047    0.0000 O   0  0  0  0  0  0  0  0  0  0  0  0
    6.7897   -9.8336    0.0000 C   0  0  0  0  0  0  0  0  0  0  0  0
  2  8  1  0
  3  5  1  0
  4 11  1  0
  5  2  1  0
  6  1  1  0
  7 13  1  6
  8  7  1  0
  9 12  1  0
 10  3  1  0
 11  9  1  0
 12 25  1  0
  1 13  1  1
 14 18  1  0
 15  6  1  0
 16  7  1  0
 17 23  1  1
 18 17  1  0
 19  1  1  0
 20 17  1  0
 21 10  1  0
 22 24  1  0
  2 23  1  6
 24 20  1  0
 25 26  1  0
 26 16  1  0
 27 30  1  0
 15 28  1  1
 29  3  2  0
 30 19  1  0
 31 12  2  0
  4 32  1  1
  6 33  1  6
 16 34  1  1
 11 35  1  1
 14 36  1  0
 22 37  1  1
 38  4  1  0
  5 39  1  1
  8 40  1  6
  9 41  1  1
 14 42  1  6
 43 16  1  0
 21 44  1  6
 24 45  1  6
 25 46  1  6
 47 28  1  0
 48 28  1  0
 30 49  1  1
 50 36  1  0
 51 44  1  0
 27 15  1  0
 21  4  1  0
 22 14  1  0
 33 52  1  0
 52 53  1  0
 52 54  2  0
 53 55  1  0
M  END

> <chembl_id>
CHEMBL2220427

> <chembl_pref_name>
ERYTHROMYCIN PROPIONATE


$$$$

     RDKit          2D

 66 70  0  0  1  0  0  0  0  0999 V2000
   -1.2708   -2.7917    0.0000 C   0  0  0  0  0  0  0  0  0  0  0  0
   -1.2708   -1.9667    0.0000 C   0  0  0  0  0  0  0  0  0  0  0  0
   -2.6583   -2.3292    0.0000 C   0  0  0  0  0  0  0  0  0  0  0  0
   -2.0708   -1.7500    0.0000 N   0  0  0  0  0  0  0  0  0  0  0  0
   -1.9875   -3.2000    0.0000 O   0  0  0  0  0  0  0  0  0  0  0  0
    3.1250   -1.5625    0.0000 C   0  0  0  0  0  0  0  0  0  0  0  0
   -0.5583   -1.5542    0.0000 C   0  0  0  0  0  0  0  0  0  0  0  0
    0.8667   -3.2125    0.0000 C   0  0  0  0  0  0  0  0  0  0  0  0
    0.1417   -4.4417    0.0000 C   0  0  0  0  0  0  0  0  0  0  0  0
    3.1167   -0.7375    0.0000 C   0  0  0  0  0  0  0  0  0  0  0  0
    3.8292   -0.3167    0.0000 C   0  0  0  0  0  0  0  0  0  0  0  0
    0.8625   -4.0375    0.0000 C   0  0  0  0  0  0  0  0  0  0  0  0
    1.5875   -1.9792    0.0000 C   0  0  0  0  0  0  0  0  0  0  0  0
    1.5792   -2.8042    0.0000 C   0  0  0  0  0  0  0  0  0  0  0  0
   -0.5500   -0.7292    0.0000 C   0  0  0  0  0  0  0  0  0  0  0  0
   -0.5708   -4.0292    0.0000 O   0  0  0  0  0  0  0  0  0  0  0  0
    2.4125   -1.9792    0.0000 O   0  0  0  0  0  0  0  0  0  0  0  0
    3.3750   -4.8417    0.0000 C   0  0  0  0  0  0  0  0  0  0  0  0
    0.8750   -1.5625    0.0000 C   0  0  0  0  0  0  0  0  0  0  0  0
   -0.5625   -3.2042    0.0000 C   0  0  0  0  0  0  0  0  0  0  0  0
    2.3750   -3.8375    0.0000 C   0  0  0  0  0  0  0  0  0  0  0  0
    2.5792   -4.6292    0.0000 C   0  0  0  0  0  0  0  0  0  0  0  0
    3.8417   -1.9667    0.0000 O   0  0  0  0  0  0  0  0  0  0  0  0
    2.9542   -3.2500    0.0000 O   0  0  0  0  0  0  0  0  0  0  0  0
    3.8292    0.5083    0.0000 N   0  0  0  0  0  0  0  0  0  0  0  0
    3.9625   -4.2667    0.0000 C   0  0  0  0  0  0  0  0  0  0  0  0
    1.5792   -3.6250    0.0000 O   0  0  0  0  0  0  0  0  0  0  0  0
    3.7500   -3.4667    0.0000 C   0  0  0  0  0  0  0  0  0  0  0  0
    0.1667   -0.3167    0.0000 C   0  0  0  0  0  0  0  0  0  0  0  0
    0.8792   -0.7375    0.0000 C   0  0  0  0  0  0  0  0  0  0  0  0
    4.5500   -0.7292    0.0000 C   0  0  0  0  0  0  0  0  0  0  0  0
   -2.2833   -0.9500    0.0000 C   0  0  0  0  0  0  0  0  0  0  0  0
   -3.4833   -2.3250    0.0000 O   0  0  0  0  0  0  0  0  0  0  0  0
    0.1417   -5.2667    0.0000 O   0  0  0  0  0  0  0  0  0  0  0  0
    4.5500   -1.5542    0.0000 C   0  0  0  0  0  0  0  0  0  0  0  0
   -1.2583   -0.3167    0.0000 O   0  0  0  0  0  0  0  0  0  0  0  0
    2.5292   -0.1500    0.0000 O   0  0  0  0  0  0  0  0  0  0  0  0
   -1.6875   -3.5042    0.0000 C   0  0  0  0  0  0  0  0  0  0  0  0
    4.5375    0.9250    0.0000 C   0  0  0  0  0  0  0  0  0  0  0  0
    3.9542   -5.4292    0.0000 O   0  0  0  0  0  0  0  0  0  0  0  0
    1.4542   -0.9750    0.0000 O   0  0  0  0  0  0  0  0  0  0  0  0
    4.7542   -4.4792    0.0000 O   0  0  0  0  0  0  0  0  0  0  0  0
   -3.0750   -0.7292    0.0000 C   0  0  0  0  0  0  0  0  0  0  0  0
   -1.2708   -1.1417    0.0000 C   0  0  0  0  0  0  0  0  0  0  0  0
   -3.7083    1.6583    0.0000 C   0  0  0  0  0  0  0  0  0  0  0  0
   -3.2875    0.0625    0.0000 C   0  0  0  0  0  0  0  0  0  0  0  0
    1.5750   -4.4542    0.0000 C   0  0  0  0  0  0  0  0  0  0  0  0
    2.2917   -3.2167    0.0000 C   0  0  0  0  0  0  0  0  0  0  0  0
   -3.9208    2.4458    0.0000 Cl  0  0  0  0  0  0  0  0  0  0  0  0
    2.9542   -5.5542    0.0000 C   0  0  0  0  0  0  0  0  0  0  0  0
    1.7000   -1.5625    0.0000 C   0  0  0  0  0  0  0  0  0  0  0  0
   -4.2958    1.0708    0.0000 C   0  0  0  0  0  0  0  0  0  0  0  0
   -2.9125    1.4375    0.0000 C   0  0  0  0  0  0  0  0  0  0  0  0
   -4.0833    0.2708    0.0000 C   0  0  0  0  0  0  0  0  0  0  0  0
   -2.7000    0.6458    0.0000 C   0  0  0  0  0  0  0  0  0  0  0  0
    3.1042    0.9125    0.0000 C   0  0  0  0  0  0  0  0  0  0  0  0
   -1.2833   -3.6125    0.0000 C   0  0  0  0  0  0  0  0  0  0  0  0
    4.3292   -2.8875    0.0000 C   0  0  0  0  0  0  0  0  0  0  0  0
    0.1667    0.5083    0.0000 C   0  0  0  0  0  0  0  0  0  0  0  0
    5.2667   -1.9667    0.0000 C   0  0  0  0  0  0  0  0  0  0  0  0
    4.5292    1.7500    0.0000 C   0  0  0  0  0  0  0  0  0  0  0  0
    5.2542    0.5208    0.0000 C   0  0  0  0  0  0  0  0  0  0  0  0
    3.9542   -6.2542    0.0000 C   0  0  0  0  0  0  0  0  0  0  0  0
    1.4542   -0.1500    0.0000 C   0  0  0  0  0  0  0  0  0  0  0  0
   -1.2833   -4.4375    0.0000 C   0  0  0  0  0  0  0  0  0  0  0  0
   -1.4006   -0.9752    0.0000 H   0  0  0  0  0  0  0  0  0  0  0  0
  2  1  1  0
  3  5  1  0
  2  4  1  0
  1  5  1  0
 17  6  1  0
  7  2  1  0
  8 12  1  0
  9 16  1  0
 10  6  1  0
 11 10  1  0
 12  9  1  0
 13 14  1  0
 14  8  1  0
 15  7  1  0
 16 20  1  0
 13 17  1  6
 18 22  1  0
 19 30  1  0
 20  1  1  0
 27 21  1  0
 22 21  1  0
 23  6  1  0
 24 21  1  0
 11 25  1  1
 26 28  1  0
  8 27  1  1
 28 24  1  0
 29 15  1  0
 30 29  1  0
 31 35  1  0
 32  4  1  0
 33  3  2  0
 34  9  2  0
 35 23  1  0
 36 15  2  0
 10 37  1  6
  1 38  1  6
 39 25  1  0
 18 40  1  0
 19 41  1  0
 26 42  1  6
 43 32  1  0
  7 44  1  6
 45 53  2  0
 46 43  1  0
 12 47  1  1
 14 48  1  1
 49 45  1  0
 18 50  1  1
 19 51  1  1
 52 54  2  0
 53 55  1  0
 54 46  1  0
 55 46  2  0
 56 25  1  0
 20 57  1  1
 28 58  1  1
 29 59  1  6
 35 60  1  1
 61 39  1  0
 62 39  1  0
 63 40  1  0
 64 41  1  0
 65 57  1  0
  3  4  1  0
 13 19  1  0
 52 45  1  0
 26 18  1  0
 31 11  1  0
  2 66  1  1
M  END

> <chembl_id>
CHEMBL273387

> <chembl_pref_name>
None


$$$$

     RDKit          2D

 65 69  0  0  1  0  0  0  0  0999 V2000
    2.5167   -5.1042    0.0000 N   0  0  0  0  0  0  0  0  0  0  0  0
   -1.3458   -3.2667    0.0000 C   0  0  0  0  0  0  0  0  0  0  0  0
    2.2250   -5.8792    0.0000 C   0  0  0  0  0  0  0  0  0  0  0  0
    2.3042   -4.3125    0.0000 C   0  0  0  0  0  0  0  0  0  0  0  0
   -1.3375   -2.4417    0.0000 C   0  0  0  0  0  0  0  0  0  0  0  0
   -2.7250   -2.8042    0.0000 C   0  0  0  0  0  0  0  0  0  0  0  0
   -2.1375   -2.2250    0.0000 N   0  0  0  0  0  0  0  0  0  0  0  0
   -2.0583   -3.6750    0.0000 O   0  0  0  0  0  0  0  0  0  0  0  0
    0.7917   -3.6875    0.0000 C   0  0  0  0  0  0  0  0  0  0  0  0
    3.0542   -2.0375    0.0000 C   0  0  0  0  0  0  0  0  0  0  0  0
   -0.6250   -2.0292    0.0000 C   0  0  0  0  0  0  0  0  0  0  0  0
    0.0750   -4.9167    0.0000 C   0  0  0  0  0  0  0  0  0  0  0  0
    3.0417   -1.2125    0.0000 C   0  0  0  0  0  0  0  0  0  0  0  0
    3.7625   -0.7917    0.0000 C   0  0  0  0  0  0  0  0  0  0  0  0
    0.7917   -4.5042    0.0000 C   0  0  0  0  0  0  0  0  0  0  0  0
    1.5167   -2.4542    0.0000 C   0  0  0  0  0  0  0  0  0  0  0  0
    1.5042   -4.1000    0.0000 O   0  0  0  0  0  0  0  0  0  0  0  0
    2.8625   -6.4000    0.0000 O   0  0  0  0  0  0  0  0  0  0  0  0
    1.5125   -3.2792    0.0000 C   0  0  0  0  0  0  0  0  0  0  0  0
   -0.6208   -1.2042    0.0000 C   0  0  0  0  0  0  0  0  0  0  0  0
   -0.6375   -4.5042    0.0000 O   0  0  0  0  0  0  0  0  0  0  0  0
    2.3417   -2.4542    0.0000 O   0  0  0  0  0  0  0  0  0  0  0  0
    0.8042   -2.0375    0.0000 C   0  0  0  0  0  0  0  0  0  0  0  0
   -0.6333   -3.6792    0.0000 C   0  0  0  0  0  0  0  0  0  0  0  0
    3.3417   -5.1542    0.0000 C   0  0  0  0  0  0  0  0  0  0  0  0
    3.7667   -2.4417    0.0000 O   0  0  0  0  0  0  0  0  0  0  0  0
    3.7542    0.0333    0.0000 N   0  0  0  0  0  0  0  0  0  0  0  0
    3.5542   -5.9500    0.0000 C   0  0  0  0  0  0  0  0  0  0  0  0
    0.0917   -0.7917    0.0000 C   0  0  0  0  0  0  0  0  0  0  0  0
    0.8042   -1.2125    0.0000 C   0  0  0  0  0  0  0  0  0  0  0  0
    4.4792   -1.2042    0.0000 C   0  0  0  0  0  0  0  0  0  0  0  0
   -2.3500   -1.4250    0.0000 C   0  0  0  0  0  0  0  0  0  0  0  0
    1.4250   -6.0917    0.0000 O   0  0  0  0  0  0  0  0  0  0  0  0
    2.8875   -3.7250    0.0000 O   0  0  0  0  0  0  0  0  0  0  0  0
   -3.5500   -2.8000    0.0000 O   0  0  0  0  0  0  0  0  0  0  0  0
    0.0667   -5.7417    0.0000 O   0  0  0  0  0  0  0  0  0  0  0  0
    4.4792   -2.0292    0.0000 C   0  0  0  0  0  0  0  0  0  0  0  0
   -1.3333   -0.7917    0.0000 O   0  0  0  0  0  0  0  0  0  0  0  0
    2.4542   -0.6250    0.0000 O   0  0  0  0  0  0  0  0  0  0  0  0
   -1.7583   -3.9792    0.0000 C   0  0  0  0  0  0  0  0  0  0  0  0
    4.4667    0.4500    0.0000 C   0  0  0  0  0  0  0  0  0  0  0  0
    1.3875   -1.4500    0.0000 O   0  0  0  0  0  0  0  0  0  0  0  0
   -3.1458   -1.2042    0.0000 C   0  0  0  0  0  0  0  0  0  0  0  0
   -1.3458   -1.6167    0.0000 C   0  0  0  0  0  0  0  0  0  0  0  0
   -3.7833    1.1833    0.0000 C   0  0  0  0  0  0  0  0  0  0  0  0
   -3.3583   -0.4125    0.0000 C   0  0  0  0  0  0  0  0  0  0  0  0
    1.5042   -4.9292    0.0000 C   0  0  0  0  0  0  0  0  0  0  0  0
    2.2250   -3.6917    0.0000 C   0  0  0  0  0  0  0  0  0  0  0  0
   -3.9958    1.9708    0.0000 Cl  0  0  0  0  0  0  0  0  0  0  0  0
    1.6292   -2.0375    0.0000 C   0  0  0  0  0  0  0  0  0  0  0  0
   -2.9833    0.9625    0.0000 C   0  0  0  0  0  0  0  0  0  0  0  0
   -4.3708    0.5958    0.0000 C   0  0  0  0  0  0  0  0  0  0  0  0
   -2.7708    0.1708    0.0000 C   0  0  0  0  0  0  0  0  0  0  0  0
   -4.1583   -0.2042    0.0000 C   0  0  0  0  0  0  0  0  0  0  0  0
    3.0375    0.4375    0.0000 C   0  0  0  0  0  0  0  0  0  0  0  0
    3.7542   -4.4375    0.0000 C   0  0  0  0  0  0  0  0  0  0  0  0
   -1.3500   -4.0875    0.0000 C   0  0  0  0  0  0  0  0  0  0  0  0
    4.3500   -6.1625    0.0000 C   0  0  0  0  0  0  0  0  0  0  0  0
    0.1000    0.0333    0.0000 C   0  0  0  0  0  0  0  0  0  0  0  0
    5.1917   -2.4417    0.0000 C   0  0  0  0  0  0  0  0  0  0  0  0
    4.4625    1.2750    0.0000 C   0  0  0  0  0  0  0  0  0  0  0  0
    5.1792    0.0458    0.0000 C   0  0  0  0  0  0  0  0  0  0  0  0
    1.3792   -0.6250    0.0000 C   0  0  0  0  0  0  0  0  0  0  0  0
   -1.3583   -4.9125    0.0000 C   0  0  0  0  0  0  0  0  0  0  0  0
   -1.4673   -1.4502    0.0000 H   0  0  0  0  0  0  0  0  0  0  0  0
  2 24  1  0
  3  1  1  0
  4  1  1  0
  5  2  1  0
  6  8  1  0
  5  7  1  0
  2  8  1  0
  9 17  1  1
 22 10  1  0
 11 20  1  0
 12 15  1  0
 13 10  1  0
 14 13  1  0
 15  9  1  0
 16 19  1  0
 17  4  1  0
 18  3  1  0
 19  9  1  0
 20 29  1  0
 21 12  1  0
 16 22  1  6
 23 16  1  0
 24 21  1  0
 25  1  1  0
 26 10  1  0
 14 27  1  1
 28 25  1  0
 29 30  1  0
 30 23  1  0
 31 37  1  0
 32  7  1  0
 33  3  2  0
 34  4  2  0
 35  6  2  0
 36 12  2  0
 37 26  1  0
 38 20  2  0
 13 39  1  6
  2 40  1  6
 41 27  1  0
 23 42  1  0
 43 32  1  0
 11 44  1  6
 45 52  1  0
 46 43  1  0
 15 47  1  1
 19 48  1  1
 49 45  1  0
 23 50  1  1
 51 53  1  0
 52 54  2  0
 53 46  2  0
 54 46  1  0
 55 27  1  0
 25 56  1  1
 24 57  1  1
 28 58  1  1
 29 59  1  6
 37 60  1  1
 61 41  1  0
 62 41  1  0
 63 42  1  0
 64 57  1  0
 28 18  1  0
 11  5  1  0
 31 14  1  0
  6  7  1  0
 45 51  2  0
  5 65  1  1
M  END

> <chembl_id>
CHEMBL273535

> <chembl_pref_name>
None


$$$$

     RDKit          2D

 62 66  0  0  1  0  0  0  0  0999 V2000
   -0.2208   -4.3417    0.0000 C   0  0  0  0  0  0  0  0  0  0  0  0
   -0.2208   -3.5167    0.0000 C   0  0  0  0  0  0  0  0  0  0  0  0
   -1.6083   -3.8792    0.0000 C   0  0  0  0  0  0  0  0  0  0  0  0
   -1.0208   -3.3042    0.0000 N   0  0  0  0  0  0  0  0  0  0  0  0
   -0.9375   -4.7542    0.0000 O   0  0  0  0  0  0  0  0  0  0  0  0
    1.9167   -4.7667    0.0000 C   0  0  0  0  0  0  0  0  0  0  0  0
    4.1750   -3.1167    0.0000 C   0  0  0  0  0  0  0  0  0  0  0  0
    0.4917   -3.1042    0.0000 C   0  0  0  0  0  0  0  0  0  0  0  0
    1.1917   -6.0000    0.0000 C   0  0  0  0  0  0  0  0  0  0  0  0
    4.1667   -2.2917    0.0000 C   0  0  0  0  0  0  0  0  0  0  0  0
    4.8792   -1.8750    0.0000 C   0  0  0  0  0  0  0  0  0  0  0  0
    1.9125   -5.5917    0.0000 C   0  0  0  0  0  0  0  0  0  0  0  0
    2.6375   -3.5292    0.0000 C   0  0  0  0  0  0  0  0  0  0  0  0
    2.6292   -4.3542    0.0000 C   0  0  0  0  0  0  0  0  0  0  0  0
    0.5000   -2.2792    0.0000 C   0  0  0  0  0  0  0  0  0  0  0  0
    0.4792   -5.5792    0.0000 O   0  0  0  0  0  0  0  0  0  0  0  0
    3.4625   -3.5292    0.0000 O   0  0  0  0  0  0  0  0  0  0  0  0
    2.6292   -5.1792    0.0000 O   0  0  0  0  0  0  0  0  0  0  0  0
    1.9250   -3.1167    0.0000 C   0  0  0  0  0  0  0  0  0  0  0  0
    3.4250   -5.3917    0.0000 C   0  0  0  0  0  0  0  0  0  0  0  0
    0.4875   -4.7542    0.0000 C   0  0  0  0  0  0  0  0  0  0  0  0
    4.8917   -3.5250    0.0000 O   0  0  0  0  0  0  0  0  0  0  0  0
    4.8792   -1.0500    0.0000 N   0  0  0  0  0  0  0  0  0  0  0  0
    1.2167   -1.8750    0.0000 C   0  0  0  0  0  0  0  0  0  0  0  0
    1.9292   -2.2917    0.0000 C   0  0  0  0  0  0  0  0  0  0  0  0
    5.6000   -2.2875    0.0000 C   0  0  0  0  0  0  0  0  0  0  0  0
   -1.2333   -2.5042    0.0000 C   0  0  0  0  0  0  0  0  0  0  0  0
    3.6375   -6.1875    0.0000 C   0  0  0  0  0  0  0  0  0  0  0  0
   -2.4333   -3.8792    0.0000 O   0  0  0  0  0  0  0  0  0  0  0  0
    1.1917   -6.8250    0.0000 O   0  0  0  0  0  0  0  0  0  0  0  0
    5.6000   -3.1125    0.0000 C   0  0  0  0  0  0  0  0  0  0  0  0
   -0.2083   -1.8667    0.0000 O   0  0  0  0  0  0  0  0  0  0  0  0
    4.0042   -4.8042    0.0000 O   0  0  0  0  0  0  0  0  0  0  0  0
    3.9417   -7.4875    0.0000 O   0  0  0  0  0  0  0  0  0  0  0  0
    3.5792   -1.7042    0.0000 O   0  0  0  0  0  0  0  0  0  0  0  0
   -0.6375   -5.0542    0.0000 C   0  0  0  0  0  0  0  0  0  0  0  0
    5.5875   -0.6292    0.0000 C   0  0  0  0  0  0  0  0  0  0  0  0
    2.5042   -2.5292    0.0000 O   0  0  0  0  0  0  0  0  0  0  0  0
   -2.0250   -2.2875    0.0000 C   0  0  0  0  0  0  0  0  0  0  0  0
   -0.2208   -2.6917    0.0000 C   0  0  0  0  0  0  0  0  0  0  0  0
   -2.6583    0.1000    0.0000 C   0  0  0  0  0  0  0  0  0  0  0  0
   -2.2375   -1.4917    0.0000 C   0  0  0  0  0  0  0  0  0  0  0  0
    2.6250   -6.0042    0.0000 C   0  0  0  0  0  0  0  0  0  0  0  0
    3.3167   -6.9417    0.0000 C   0  0  0  0  0  0  0  0  0  0  0  0
    3.3417   -4.7750    0.0000 C   0  0  0  0  0  0  0  0  0  0  0  0
   -2.8708    0.8958    0.0000 Cl  0  0  0  0  0  0  0  0  0  0  0  0
    2.7500   -3.1167    0.0000 C   0  0  0  0  0  0  0  0  0  0  0  0
   -1.8625   -0.1167    0.0000 C   0  0  0  0  0  0  0  0  0  0  0  0
   -3.2458   -0.4875    0.0000 C   0  0  0  0  0  0  0  0  0  0  0  0
   -1.6500   -0.9125    0.0000 C   0  0  0  0  0  0  0  0  0  0  0  0
   -3.0333   -1.2792    0.0000 C   0  0  0  0  0  0  0  0  0  0  0  0
    4.1542   -0.6417    0.0000 C   0  0  0  0  0  0  0  0  0  0  0  0
   -0.2333   -5.1667    0.0000 C   0  0  0  0  0  0  0  0  0  0  0  0
    4.4625   -6.2542    0.0000 C   0  0  0  0  0  0  0  0  0  0  0  0
    1.2167   -1.0500    0.0000 C   0  0  0  0  0  0  0  0  0  0  0  0
    4.6500   -7.0625    0.0000 C   0  0  0  0  0  0  0  0  0  0  0  0
    6.3167   -3.5250    0.0000 C   0  0  0  0  0  0  0  0  0  0  0  0
    5.5792    0.1958    0.0000 C   0  0  0  0  0  0  0  0  0  0  0  0
    6.3042   -1.0375    0.0000 C   0  0  0  0  0  0  0  0  0  0  0  0
    2.5042   -1.7042    0.0000 C   0  0  0  0  0  0  0  0  0  0  0  0
   -0.2333   -5.9917    0.0000 C   0  0  0  0  0  0  0  0  0  0  0  0
   -0.3530   -2.5255    0.0000 H   0  0  0  0  0  0  0  0  0  0  0  0
  2  1  1  0
  3  5  1  0
  2  4  1  0
  1  5  1  0
  6 12  1  0
 17  7  1  0
  8  2  1  0
  9 16  1  0
 10  7  1  0
 11 10  1  0
 12  9  1  0
 13 14  1  0
 14  6  1  0
 15  8  1  0
 16 21  1  0
 13 17  1  6
  6 18  1  1
 19 25  1  0
 20 18  1  0
 21  1  1  0
 22  7  1  0
 11 23  1  1
 24 15  1  0
 25 24  1  0
 26 31  1  0
 27  4  1  0
 28 20  1  0
 29  3  2  0
 30  9  2  0
 31 22  1  0
 32 15  2  0
 33 20  2  0
 34 44  1  0
 10 35  1  6
  1 36  1  6
 37 23  1  0
 19 38  1  0
 39 27  1  0
  8 40  1  6
 41 49  1  0
 42 39  1  0
 12 43  1  1
 44 28  1  0
 14 45  1  1
 46 41  1  0
 19 47  1  1
 48 50  1  0
 49 51  2  0
 50 42  2  0
 51 42  1  0
 52 23  1  0
 21 53  1  1
 54 28  1  0
 24 55  1  6
 56 54  1  0
 31 57  1  1
 58 37  1  0
 59 37  1  0
 60 38  1  0
 61 53  1  0
  3  4  1  0
 13 19  1  0
 41 48  2  0
 56 34  1  0
 26 11  1  0
  2 62  1  1
M  END

> <chembl_id>
CHEMBL268489

> <chembl_pref_name>
None


$$$$

     RDKit          2D

 63 67  0  0  1  0  0  0  0  0999 V2000
   -0.2208   -3.9792    0.0000 C   0  0  0  0  0  0  0  0  0  0  0  0
   -0.2208   -3.1542    0.0000 C   0  0  0  0  0  0  0  0  0  0  0  0
    3.6375   -5.8167    0.0000 N   0  0  0  0  0  0  0  0  0  0  0  0
   -1.6083   -3.5167    0.0000 C   0  0  0  0  0  0  0  0  0  0  0  0
   -1.0208   -2.9375    0.0000 N   0  0  0  0  0  0  0  0  0  0  0  0
   -0.9375   -4.3792    0.0000 O   0  0  0  0  0  0  0  0  0  0  0  0
    3.4250   -5.0250    0.0000 C   0  0  0  0  0  0  0  0  0  0  0  0
    1.9167   -4.4000    0.0000 C   0  0  0  0  0  0  0  0  0  0  0  0
    4.1750   -2.7500    0.0000 C   0  0  0  0  0  0  0  0  0  0  0  0
    0.4917   -2.7417    0.0000 C   0  0  0  0  0  0  0  0  0  0  0  0
    1.1917   -5.6292    0.0000 C   0  0  0  0  0  0  0  0  0  0  0  0
    4.1667   -1.9250    0.0000 C   0  0  0  0  0  0  0  0  0  0  0  0
    4.8792   -1.5042    0.0000 C   0  0  0  0  0  0  0  0  0  0  0  0
    1.9125   -5.2250    0.0000 C   0  0  0  0  0  0  0  0  0  0  0  0
    3.0917   -6.4417    0.0000 C   0  0  0  0  0  0  0  0  0  0  0  0
    2.6375   -3.1667    0.0000 C   0  0  0  0  0  0  0  0  0  0  0  0
    2.6292   -3.9917    0.0000 C   0  0  0  0  0  0  0  0  0  0  0  0
    2.6292   -4.8125    0.0000 O   0  0  0  0  0  0  0  0  0  0  0  0
    0.5000   -1.9167    0.0000 C   0  0  0  0  0  0  0  0  0  0  0  0
    0.4792   -5.2167    0.0000 O   0  0  0  0  0  0  0  0  0  0  0  0
    3.4625   -3.1667    0.0000 O   0  0  0  0  0  0  0  0  0  0  0  0
    1.9250   -2.7500    0.0000 C   0  0  0  0  0  0  0  0  0  0  0  0
    0.4875   -4.3917    0.0000 C   0  0  0  0  0  0  0  0  0  0  0  0
    4.8917   -3.1542    0.0000 O   0  0  0  0  0  0  0  0  0  0  0  0
    4.8792   -0.6792    0.0000 N   0  0  0  0  0  0  0  0  0  0  0  0
    1.2167   -1.5042    0.0000 C   0  0  0  0  0  0  0  0  0  0  0  0
    1.9292   -1.9250    0.0000 C   0  0  0  0  0  0  0  0  0  0  0  0
    5.6000   -1.9167    0.0000 C   0  0  0  0  0  0  0  0  0  0  0  0
   -1.2333   -2.1375    0.0000 C   0  0  0  0  0  0  0  0  0  0  0  0
    3.5125   -7.1542    0.0000 O   0  0  0  0  0  0  0  0  0  0  0  0
   -2.4333   -3.5125    0.0000 O   0  0  0  0  0  0  0  0  0  0  0  0
    4.0042   -4.4375    0.0000 O   0  0  0  0  0  0  0  0  0  0  0  0
    1.1917   -6.4542    0.0000 O   0  0  0  0  0  0  0  0  0  0  0  0
    5.6000   -2.7417    0.0000 C   0  0  0  0  0  0  0  0  0  0  0  0
    2.2667   -6.3667    0.0000 O   0  0  0  0  0  0  0  0  0  0  0  0
   -0.2083   -1.5042    0.0000 O   0  0  0  0  0  0  0  0  0  0  0  0
    3.5792   -1.3375    0.0000 O   0  0  0  0  0  0  0  0  0  0  0  0
   -0.6375   -4.6917    0.0000 C   0  0  0  0  0  0  0  0  0  0  0  0
    4.3917   -6.1542    0.0000 C   0  0  0  0  0  0  0  0  0  0  0  0
    5.5875   -0.2625    0.0000 C   0  0  0  0  0  0  0  0  0  0  0  0
    2.5042   -2.1625    0.0000 O   0  0  0  0  0  0  0  0  0  0  0  0
   -2.0250   -1.9167    0.0000 C   0  0  0  0  0  0  0  0  0  0  0  0
   -0.2208   -2.3292    0.0000 C   0  0  0  0  0  0  0  0  0  0  0  0
   -2.6583    0.4708    0.0000 C   0  0  0  0  0  0  0  0  0  0  0  0
   -2.2375   -1.1250    0.0000 C   0  0  0  0  0  0  0  0  0  0  0  0
    4.3167   -6.9750    0.0000 C   0  0  0  0  0  0  0  0  0  0  0  0
    2.6250   -5.6417    0.0000 C   0  0  0  0  0  0  0  0  0  0  0  0
    3.3417   -4.4042    0.0000 C   0  0  0  0  0  0  0  0  0  0  0  0
   -2.8708    1.2583    0.0000 Cl  0  0  0  0  0  0  0  0  0  0  0  0
    2.7500   -2.7500    0.0000 C   0  0  0  0  0  0  0  0  0  0  0  0
   -1.8625    0.2500    0.0000 C   0  0  0  0  0  0  0  0  0  0  0  0
   -3.2458   -0.1167    0.0000 C   0  0  0  0  0  0  0  0  0  0  0  0
   -1.6500   -0.5417    0.0000 C   0  0  0  0  0  0  0  0  0  0  0  0
   -3.0333   -0.9167    0.0000 C   0  0  0  0  0  0  0  0  0  0  0  0
    4.1542   -0.2750    0.0000 C   0  0  0  0  0  0  0  0  0  0  0  0
   -0.2333   -4.8000    0.0000 C   0  0  0  0  0  0  0  0  0  0  0  0
    1.2167   -0.6792    0.0000 C   0  0  0  0  0  0  0  0  0  0  0  0
    6.3167   -3.1542    0.0000 C   0  0  0  0  0  0  0  0  0  0  0  0
    5.5792    0.5625    0.0000 C   0  0  0  0  0  0  0  0  0  0  0  0
    6.3042   -0.6667    0.0000 C   0  0  0  0  0  0  0  0  0  0  0  0
    2.5042   -1.3375    0.0000 C   0  0  0  0  0  0  0  0  0  0  0  0
   -0.2333   -5.6250    0.0000 C   0  0  0  0  0  0  0  0  0  0  0  0
   -0.3506   -2.1627    0.0000 H   0  0  0  0  0  0  0  0  0  0  0  0
  2  1  1  0
  3  7  1  0
  4  6  1  0
  2  5  1  0
  1  6  1  0
  7 18  1  0
  8 14  1  0
 21  9  1  0
 10  2  1  0
 11 20  1  0
 12  9  1  0
 13 12  1  0
 14 11  1  0
 15  3  1  0
 16 17  1  0
 17  8  1  0
  8 18  1  1
 19 10  1  0
 20 23  1  0
 16 21  1  6
 22 27  1  0
 23  1  1  0
 24  9  1  0
 13 25  1  1
 26 19  1  0
 27 26  1  0
 28 34  1  0
 29  5  1  0
 30 15  1  0
 31  4  2  0
 32  7  2  0
 33 11  2  0
 34 24  1  0
 35 15  2  0
 36 19  2  0
 12 37  1  6
  1 38  1  6
 39  3  1  0
 40 25  1  0
 22 41  1  0
 42 29  1  0
 10 43  1  6
 44 52  1  0
 45 42  1  0
 46 39  1  0
 14 47  1  1
 17 48  1  1
 49 44  1  0
 22 50  1  1
 51 53  1  0
 52 54  2  0
 53 45  2  0
 54 45  1  0
 55 25  1  0
 23 56  1  1
 26 57  1  6
 34 58  1  1
 59 40  1  0
 60 40  1  0
 61 41  1  0
 62 56  1  0
  4  5  1  0
 16 22  1  0
 44 51  2  0
 46 30  1  0
 28 13  1  0
  2 63  1  1
M  END

> <chembl_id>
CHEMBL273466

> <chembl_pref_name>
None


$$$$

     RDKit          2D

 55 58  0  0  1  0  0  0  0  0999 V2000
   -1.3333   -2.7917    0.0000 C   0  0  0  0  0  0  0  0  0  0  0  0
   -1.3333   -1.9667    0.0000 C   0  0  0  0  0  0  0  0  0  0  0  0
   -2.7208   -2.3292    0.0000 C   0  0  0  0  0  0  0  0  0  0  0  0
   -2.1333   -1.7500    0.0000 N   0  0  0  0  0  0  0  0  0  0  0  0
   -2.0500   -3.2000    0.0000 O   0  0  0  0  0  0  0  0  0  0  0  0
    3.0625   -1.5625    0.0000 C   0  0  0  0  0  0  0  0  0  0  0  0
   -0.6208   -1.5542    0.0000 C   0  0  0  0  0  0  0  0  0  0  0  0
    0.0792   -4.4417    0.0000 C   0  0  0  0  0  0  0  0  0  0  0  0
    3.0542   -0.7375    0.0000 C   0  0  0  0  0  0  0  0  0  0  0  0
    3.7667   -0.3167    0.0000 C   0  0  0  0  0  0  0  0  0  0  0  0
    0.8000   -4.0375    0.0000 C   0  0  0  0  0  0  0  0  0  0  0  0
    1.5250   -1.9792    0.0000 C   0  0  0  0  0  0  0  0  0  0  0  0
   -0.6125   -0.7292    0.0000 C   0  0  0  0  0  0  0  0  0  0  0  0
    1.5167   -2.8042    0.0000 C   0  0  0  0  0  0  0  0  0  0  0  0
   -0.6333   -4.0292    0.0000 O   0  0  0  0  0  0  0  0  0  0  0  0
    0.8042   -3.2125    0.0000 C   0  0  0  0  0  0  0  0  0  0  0  0
    2.3500   -1.9792    0.0000 O   0  0  0  0  0  0  0  0  0  0  0  0
    0.8125   -1.5625    0.0000 C   0  0  0  0  0  0  0  0  0  0  0  0
   -0.6250   -3.2042    0.0000 C   0  0  0  0  0  0  0  0  0  0  0  0
    3.7792   -1.9667    0.0000 O   0  0  0  0  0  0  0  0  0  0  0  0
    3.7667    0.5083    0.0000 N   0  0  0  0  0  0  0  0  0  0  0  0
    0.1042   -0.3167    0.0000 C   0  0  0  0  0  0  0  0  0  0  0  0
    0.8167   -0.7375    0.0000 C   0  0  0  0  0  0  0  0  0  0  0  0
    4.4875   -0.7292    0.0000 C   0  0  0  0  0  0  0  0  0  0  0  0
   -2.3458   -0.9500    0.0000 C   0  0  0  0  0  0  0  0  0  0  0  0
   -3.5458   -2.3250    0.0000 O   0  0  0  0  0  0  0  0  0  0  0  0
    0.0792   -5.2667    0.0000 O   0  0  0  0  0  0  0  0  0  0  0  0
    4.4875   -1.5542    0.0000 C   0  0  0  0  0  0  0  0  0  0  0  0
   -1.3208   -0.3167    0.0000 O   0  0  0  0  0  0  0  0  0  0  0  0
    2.4667   -0.1500    0.0000 O   0  0  0  0  0  0  0  0  0  0  0  0
   -1.7500   -3.5042    0.0000 C   0  0  0  0  0  0  0  0  0  0  0  0
    4.4750    0.9250    0.0000 C   0  0  0  0  0  0  0  0  0  0  0  0
    1.5167   -3.6250    0.0000 O   0  0  0  0  0  0  0  0  0  0  0  0
    1.3917   -0.9750    0.0000 O   0  0  0  0  0  0  0  0  0  0  0  0
   -3.1375   -0.7292    0.0000 C   0  0  0  0  0  0  0  0  0  0  0  0
   -1.3333   -1.1417    0.0000 C   0  0  0  0  0  0  0  0  0  0  0  0
   -3.7708    1.6583    0.0000 C   0  0  0  0  0  0  0  0  0  0  0  0
   -3.3500    0.0625    0.0000 C   0  0  0  0  0  0  0  0  0  0  0  0
    1.5125   -4.4542    0.0000 C   0  0  0  0  0  0  0  0  0  0  0  0
    2.2292   -3.2167    0.0000 C   0  0  0  0  0  0  0  0  0  0  0  0
   -3.9833    2.4458    0.0000 Cl  0  0  0  0  0  0  0  0  0  0  0  0
    1.6375   -1.5625    0.0000 C   0  0  0  0  0  0  0  0  0  0  0  0
   -2.9750    1.4375    0.0000 C   0  0  0  0  0  0  0  0  0  0  0  0
   -4.3583    1.0708    0.0000 C   0  0  0  0  0  0  0  0  0  0  0  0
   -2.7625    0.6458    0.0000 C   0  0  0  0  0  0  0  0  0  0  0  0
   -4.1458    0.2708    0.0000 C   0  0  0  0  0  0  0  0  0  0  0  0
    3.0417    0.9125    0.0000 C   0  0  0  0  0  0  0  0  0  0  0  0
   -1.3458   -3.6125    0.0000 C   0  0  0  0  0  0  0  0  0  0  0  0
    0.1042    0.5083    0.0000 C   0  0  0  0  0  0  0  0  0  0  0  0
    5.2042   -1.9667    0.0000 C   0  0  0  0  0  0  0  0  0  0  0  0
    4.4667    1.7500    0.0000 C   0  0  0  0  0  0  0  0  0  0  0  0
    5.1917    0.5208    0.0000 C   0  0  0  0  0  0  0  0  0  0  0  0
    1.3917   -0.1500    0.0000 C   0  0  0  0  0  0  0  0  0  0  0  0
   -1.3458   -4.4375    0.0000 C   0  0  0  0  0  0  0  0  0  0  0  0
   -1.4631   -0.9752    0.0000 H   0  0  0  0  0  0  0  0  0  0  0  0
  2  1  1  0
  3  5  1  0
  2  4  1  0
  1  5  1  0
 17  6  1  0
  7  2  1  0
  8 15  1  0
  9  6  1  0
 10  9  1  0
 11  8  1  0
 12 14  1  0
 13  7  1  0
 14 16  1  0
 15 19  1  0
 16 11  1  0
 12 17  1  6
 18 23  1  0
 19  1  1  0
 20  6  1  0
 10 21  1  1
 22 13  1  0
 23 22  1  0
 24 28  1  0
 25  4  1  0
 26  3  2  0
 27  8  2  0
 28 20  1  0
 29 13  2  0
  9 30  1  6
  1 31  1  6
 32 21  1  0
 16 33  1  1
 18 34  1  0
 35 25  1  0
  7 36  1  6
 37 44  1  0
 38 35  1  0
 11 39  1  1
 14 40  1  1
 41 37  1  0
 18 42  1  1
 43 45  1  0
 44 46  2  0
 45 38  2  0
 46 38  1  0
 47 21  1  0
 19 48  1  1
 22 49  1  6
 28 50  1  1
 51 32  1  0
 52 32  1  0
 53 34  1  0
 54 48  1  0
  3  4  1  0
 12 18  1  0
 37 43  2  0
 24 10  1  0
  2 55  1  1
M  END

> <chembl_id>
CHEMBL12265

> <chembl_pref_name>
None


$$$$

     RDKit          2D

 61 64  0  0  1  0  0  0  0  0999 V2000
   -2.1833   -3.2667    0.0000 C   0  0  0  0  0  0  0  0  0  0  0  0
   -2.1833   -2.4417    0.0000 C   0  0  0  0  0  0  0  0  0  0  0  0
   -3.5708   -2.8042    0.0000 C   0  0  0  0  0  0  0  0  0  0  0  0
   -2.9833   -2.2250    0.0000 N   0  0  0  0  0  0  0  0  0  0  0  0
   -2.9000   -3.6750    0.0000 O   0  0  0  0  0  0  0  0  0  0  0  0
    2.2125   -2.0375    0.0000 C   0  0  0  0  0  0  0  0  0  0  0  0
   -1.4708   -2.0292    0.0000 C   0  0  0  0  0  0  0  0  0  0  0  0
   -0.0458   -3.6875    0.0000 C   0  0  0  0  0  0  0  0  0  0  0  0
   -0.7708   -4.9167    0.0000 C   0  0  0  0  0  0  0  0  0  0  0  0
    2.2042   -1.2125    0.0000 C   0  0  0  0  0  0  0  0  0  0  0  0
    2.9167   -0.7917    0.0000 C   0  0  0  0  0  0  0  0  0  0  0  0
   -0.0500   -4.5042    0.0000 C   0  0  0  0  0  0  0  0  0  0  0  0
    0.6750   -2.4542    0.0000 C   0  0  0  0  0  0  0  0  0  0  0  0
    0.6667   -3.2792    0.0000 C   0  0  0  0  0  0  0  0  0  0  0  0
   -1.4625   -1.2042    0.0000 C   0  0  0  0  0  0  0  0  0  0  0  0
   -1.4833   -4.5042    0.0000 O   0  0  0  0  0  0  0  0  0  0  0  0
    1.5000   -2.4542    0.0000 O   0  0  0  0  0  0  0  0  0  0  0  0
   -0.0375   -2.0375    0.0000 C   0  0  0  0  0  0  0  0  0  0  0  0
   -1.4750   -3.6792    0.0000 C   0  0  0  0  0  0  0  0  0  0  0  0
    2.9292   -2.4417    0.0000 O   0  0  0  0  0  0  0  0  0  0  0  0
    2.9167    0.0333    0.0000 N   0  0  0  0  0  0  0  0  0  0  0  0
   -0.7458   -0.7917    0.0000 C   0  0  0  0  0  0  0  0  0  0  0  0
    0.6667   -4.1000    0.0000 O   0  0  0  0  0  0  0  0  0  0  0  0
    1.4625   -4.3125    0.0000 C   0  0  0  0  0  0  0  0  0  0  0  0
   -0.0333   -1.2125    0.0000 C   0  0  0  0  0  0  0  0  0  0  0  0
    3.6375   -1.2042    0.0000 C   0  0  0  0  0  0  0  0  0  0  0  0
   -3.1958   -1.4250    0.0000 C   0  0  0  0  0  0  0  0  0  0  0  0
   -4.3958   -2.8000    0.0000 O   0  0  0  0  0  0  0  0  0  0  0  0
   -0.7708   -5.7417    0.0000 O   0  0  0  0  0  0  0  0  0  0  0  0
    3.6375   -2.0292    0.0000 C   0  0  0  0  0  0  0  0  0  0  0  0
   -2.1708   -0.7917    0.0000 O   0  0  0  0  0  0  0  0  0  0  0  0
    2.0417   -3.7250    0.0000 O   0  0  0  0  0  0  0  0  0  0  0  0
    1.6167   -0.6250    0.0000 O   0  0  0  0  0  0  0  0  0  0  0  0
   -2.6000   -3.9792    0.0000 C   0  0  0  0  0  0  0  0  0  0  0  0
    3.6250    0.4500    0.0000 C   0  0  0  0  0  0  0  0  0  0  0  0
    1.6750   -5.1042    0.0000 C   0  0  0  0  0  0  0  0  0  0  0  0
    0.5417   -1.4500    0.0000 O   0  0  0  0  0  0  0  0  0  0  0  0
   -3.9875   -1.2042    0.0000 C   0  0  0  0  0  0  0  0  0  0  0  0
   -2.1833   -1.6167    0.0000 C   0  0  0  0  0  0  0  0  0  0  0  0
   -4.6208    1.1833    0.0000 C   0  0  0  0  0  0  0  0  0  0  0  0
   -4.2083   -0.4125    0.0000 C   0  0  0  0  0  0  0  0  0  0  0  0
    0.6625   -4.9292    0.0000 C   0  0  0  0  0  0  0  0  0  0  0  0
    1.3792   -3.6917    0.0000 C   0  0  0  0  0  0  0  0  0  0  0  0
   -4.8333    1.9708    0.0000 Cl  0  0  0  0  0  0  0  0  0  0  0  0
    0.7875   -2.0375    0.0000 C   0  0  0  0  0  0  0  0  0  0  0  0
   -5.2083    0.5958    0.0000 C   0  0  0  0  0  0  0  0  0  0  0  0
   -3.8250    0.9625    0.0000 C   0  0  0  0  0  0  0  0  0  0  0  0
   -4.9958   -0.2042    0.0000 C   0  0  0  0  0  0  0  0  0  0  0  0
   -3.6125    0.1708    0.0000 C   0  0  0  0  0  0  0  0  0  0  0  0
    2.1917    0.4375    0.0000 C   0  0  0  0  0  0  0  0  0  0  0  0
   -2.1958   -4.0875    0.0000 C   0  0  0  0  0  0  0  0  0  0  0  0
   -0.7458    0.0333    0.0000 C   0  0  0  0  0  0  0  0  0  0  0  0
    2.4750   -5.3167    0.0000 C   0  0  0  0  0  0  0  0  0  0  0  0
    4.3542   -2.4417    0.0000 C   0  0  0  0  0  0  0  0  0  0  0  0
    3.6167    1.2750    0.0000 C   0  0  0  0  0  0  0  0  0  0  0  0
    4.3417    0.0458    0.0000 C   0  0  0  0  0  0  0  0  0  0  0  0
    0.5417   -0.6250    0.0000 C   0  0  0  0  0  0  0  0  0  0  0  0
   -2.1958   -4.9125    0.0000 C   0  0  0  0  0  0  0  0  0  0  0  0
    2.6875   -6.1167    0.0000 C   0  0  0  0  0  0  0  0  0  0  0  0
    3.0542   -4.7292    0.0000 C   0  0  0  0  0  0  0  0  0  0  0  0
   -2.3131   -1.4502    0.0000 H   0  0  0  0  0  0  0  0  0  0  0  0
  2  1  1  0
  3  5  1  0
  2  4  1  0
  1  5  1  0
 17  6  1  0
  7  2  1  0
  8 12  1  0
  9 16  1  0
 10  6  1  0
 11 10  1  0
 12  9  1  0
 13 14  1  0
 14  8  1  0
 15  7  1  0
 16 19  1  0
 13 17  1  6
 18 25  1  0
 19  1  1  0
 20  6  1  0
 11 21  1  1
 22 15  1  0
  8 23  1  1
 24 23  1  0
 25 22  1  0
 26 30  1  0
 27  4  1  0
 28  3  2  0
 29  9  2  0
 30 20  1  0
 31 15  2  0
 32 24  2  0
 10 33  1  6
  1 34  1  6
 35 21  1  0
 36 24  1  0
 18 37  1  0
 38 27  1  0
  7 39  1  6
 40 47  2  0
 41 38  1  0
 12 42  1  1
 14 43  1  1
 44 40  1  0
 18 45  1  1
 46 48  2  0
 47 49  1  0
 48 41  1  0
 49 41  2  0
 50 21  1  0
 19 51  1  1
 22 52  1  6
 53 36  1  0
 30 54  1  1
 55 35  1  0
 56 35  1  0
 57 37  1  0
 58 51  1  0
 59 53  1  0
 60 53  1  0
  3  4  1  0
 13 18  1  0
 40 46  1  0
 26 11  1  0
  2 61  1  1
M  END

> <chembl_id>
CHEMBL268491

> <chembl_pref_name>
None


$$$$

     RDKit          2D

 67 71  0  0  1  0  0  0  0  0999 V2000
    2.9167    1.9333    0.0000 C   0  0  0  0  0  0  0  0  0  0  0  0
    6.8042    0.0958    0.0000 N   0  0  0  0  0  0  0  0  0  0  0  0
    6.5917    0.8875    0.0000 C   0  0  0  0  0  0  0  0  0  0  0  0
    2.9250    2.7583    0.0000 C   0  0  0  0  0  0  0  0  0  0  0  0
    1.5292    2.3958    0.0000 C   0  0  0  0  0  0  0  0  0  0  0  0
    2.1167    2.9833    0.0000 N   0  0  0  0  0  0  0  0  0  0  0  0
    2.0292    1.5208    0.0000 O   0  0  0  0  0  0  0  0  0  0  0  0
    5.0667    1.5208    0.0000 C   0  0  0  0  0  0  0  0  0  0  0  0
    7.3417    3.1708    0.0000 C   0  0  0  0  0  0  0  0  0  0  0  0
    3.6417    3.1708    0.0000 C   0  0  0  0  0  0  0  0  0  0  0  0
    6.5167   -0.6792    0.0000 C   0  0  0  0  0  0  0  0  0  0  0  0
    4.3500    0.2833    0.0000 C   0  0  0  0  0  0  0  0  0  0  0  0
    7.3292    3.9958    0.0000 C   0  0  0  0  0  0  0  0  0  0  0  0
    8.0542    4.4042    0.0000 C   0  0  0  0  0  0  0  0  0  0  0  0
    5.0667    0.6958    0.0000 C   0  0  0  0  0  0  0  0  0  0  0  0
    5.8042    2.7458    0.0000 C   0  0  0  0  0  0  0  0  0  0  0  0
    5.7917    1.1000    0.0000 O   0  0  0  0  0  0  0  0  0  0  0  0
    5.7917    1.9208    0.0000 C   0  0  0  0  0  0  0  0  0  0  0  0
    3.6500    3.9958    0.0000 C   0  0  0  0  0  0  0  0  0  0  0  0
    3.6292    0.6958    0.0000 O   0  0  0  0  0  0  0  0  0  0  0  0
    7.6375    0.0458    0.0000 C   0  0  0  0  0  0  0  0  0  0  0  0
    6.6292    2.7458    0.0000 O   0  0  0  0  0  0  0  0  0  0  0  0
    5.0792    3.1708    0.0000 C   0  0  0  0  0  0  0  0  0  0  0  0
    3.6375    1.5208    0.0000 C   0  0  0  0  0  0  0  0  0  0  0  0
    8.0667    2.7583    0.0000 O   0  0  0  0  0  0  0  0  0  0  0  0
    8.0542    5.2292    0.0000 N   0  0  0  0  0  0  0  0  0  0  0  0
    7.1542   -1.2000    0.0000 O   0  0  0  0  0  0  0  0  0  0  0  0
    4.3625    4.4042    0.0000 C   0  0  0  0  0  0  0  0  0  0  0  0
    5.0792    3.9958    0.0000 C   0  0  0  0  0  0  0  0  0  0  0  0
    8.7792    3.9958    0.0000 C   0  0  0  0  0  0  0  0  0  0  0  0
    1.9042    3.7708    0.0000 C   0  0  0  0  0  0  0  0  0  0  0  0
    7.1792    1.4750    0.0000 O   0  0  0  0  0  0  0  0  0  0  0  0
    0.7000    2.4000    0.0000 O   0  0  0  0  0  0  0  0  0  0  0  0
    7.8500   -0.7500    0.0000 C   0  0  0  0  0  0  0  0  0  0  0  0
    4.3417   -0.5417    0.0000 O   0  0  0  0  0  0  0  0  0  0  0  0
    5.7125   -0.8917    0.0000 O   0  0  0  0  0  0  0  0  0  0  0  0
    8.7792    3.1708    0.0000 C   0  0  0  0  0  0  0  0  0  0  0  0
    2.9292    4.4042    0.0000 O   0  0  0  0  0  0  0  0  0  0  0  0
    8.0542    0.7625    0.0000 C   0  0  0  0  0  0  0  0  0  0  0  0
    6.7417    4.5750    0.0000 O   0  0  0  0  0  0  0  0  0  0  0  0
    2.5042    1.2208    0.0000 C   0  0  0  0  0  0  0  0  0  0  0  0
    8.7667    5.6417    0.0000 C   0  0  0  0  0  0  0  0  0  0  0  0
    5.6667    3.7500    0.0000 O   0  0  0  0  0  0  0  0  0  0  0  0
    1.1042    3.9958    0.0000 C   0  0  0  0  0  0  0  0  0  0  0  0
    2.9167    3.5833    0.0000 C   0  0  0  0  0  0  0  0  0  0  0  0
    0.4667    6.3875    0.0000 C   0  0  0  0  0  0  0  0  0  0  0  0
    0.8917    4.7792    0.0000 C   0  0  0  0  0  0  0  0  0  0  0  0
    5.7917    0.2708    0.0000 C   0  0  0  0  0  0  0  0  0  0  0  0
    6.5167    1.5083    0.0000 C   0  0  0  0  0  0  0  0  0  0  0  0
    0.2542    7.1667    0.0000 Cl  0  0  0  0  0  0  0  0  0  0  0  0
    5.9167    3.1708    0.0000 C   0  0  0  0  0  0  0  0  0  0  0  0
   -0.1250    5.7917    0.0000 C   0  0  0  0  0  0  0  0  0  0  0  0
    1.2750    6.1542    0.0000 C   0  0  0  0  0  0  0  0  0  0  0  0
    0.0917    4.9917    0.0000 C   0  0  0  0  0  0  0  0  0  0  0  0
    1.4875    5.3667    0.0000 C   0  0  0  0  0  0  0  0  0  0  0  0
    7.3292    5.6417    0.0000 C   0  0  0  0  0  0  0  0  0  0  0  0
    2.9167    1.1125    0.0000 C   0  0  0  0  0  0  0  0  0  0  0  0
    4.3792    5.2292    0.0000 C   0  0  0  0  0  0  0  0  0  0  0  0
    8.8792    0.7708    0.0000 C   0  0  0  0  0  0  0  0  0  0  0  0
    9.5000    2.7583    0.0000 C   0  0  0  0  0  0  0  0  0  0  0  0
    8.7667    6.4667    0.0000 C   0  0  0  0  0  0  0  0  0  0  0  0
    9.4875    5.2417    0.0000 C   0  0  0  0  0  0  0  0  0  0  0  0
    5.6625    4.5750    0.0000 C   0  0  0  0  0  0  0  0  0  0  0  0
    9.2792    1.4875    0.0000 C   0  0  0  0  0  0  0  0  0  0  0  0
    9.2917    0.0625    0.0000 C   0  0  0  0  0  0  0  0  0  0  0  0
    2.9042    0.2875    0.0000 C   0  0  0  0  0  0  0  0  0  0  0  0
    2.7999    3.7505    0.0000 H   0  0  0  0  0  0  0  0  0  0  0  0
  2  3  1  0
  3 17  1  0
  4  1  1  0
  5  7  1  0
  4  6  1  0
  1  7  1  0
  8 15  1  0
 22  9  1  0
 10  4  1  0
 11  2  1  0
 12 20  1  0
 13  9  1  0
 14 13  1  0
 15 12  1  0
 16 18  1  0
  8 17  1  1
 18  8  1  0
 19 10  1  0
 20 24  1  0
 21  2  1  0
 16 22  1  6
 23 29  1  0
 24  1  1  0
 25  9  1  0
 14 26  1  1
 27 11  1  0
 28 19  1  0
 29 28  1  0
 30 37  1  0
 31  6  1  0
 32  3  2  0
 33  5  2  0
 34 21  1  0
 35 12  2  0
 36 11  2  0
 37 25  1  0
 38 19  2  0
 21 39  1  6
 13 40  1  6
  1 41  1  6
 42 26  1  0
 23 43  1  0
 44 31  1  0
 10 45  1  6
 46 53  2  0
 47 44  1  0
 15 48  1  1
 18 49  1  1
 50 46  1  0
 23 51  1  1
 52 54  2  0
 53 55  1  0
 54 47  1  0
 55 47  2  0
 56 26  1  0
 24 57  1  1
 28 58  1  6
 59 39  1  0
 37 60  1  1
 61 42  1  0
 62 42  1  0
 63 43  1  0
 64 59  1  0
 65 59  1  0
 66 57  1  0
  5  6  1  0
 23 16  1  0
 46 52  1  0
 34 27  1  0
 30 14  1  0
  4 67  1  1
M  END

> <chembl_id>
CHEMBL276217

> <chembl_pref_name>
None


$$$$

     RDKit          2D

 65 69  0  0  1  0  0  0  0  0999 V2000
    2.8792    2.0458    0.0000 C   0  0  0  0  0  0  0  0  0  0  0  0
    6.7667    0.2083    0.0000 N   0  0  0  0  0  0  0  0  0  0  0  0
    2.8917    2.8708    0.0000 C   0  0  0  0  0  0  0  0  0  0  0  0
    1.5000    2.5083    0.0000 C   0  0  0  0  0  0  0  0  0  0  0  0
    2.0875    3.0875    0.0000 N   0  0  0  0  0  0  0  0  0  0  0  0
    6.4792   -0.5667    0.0000 C   0  0  0  0  0  0  0  0  0  0  0  0
    6.5625    1.0000    0.0000 C   0  0  0  0  0  0  0  0  0  0  0  0
    2.0542    1.6375    0.0000 O   0  0  0  0  0  0  0  0  0  0  0  0
    5.0375    1.6333    0.0000 C   0  0  0  0  0  0  0  0  0  0  0  0
    7.3125    3.2833    0.0000 C   0  0  0  0  0  0  0  0  0  0  0  0
    3.6125    3.2958    0.0000 C   0  0  0  0  0  0  0  0  0  0  0  0
    4.3167    0.3958    0.0000 C   0  0  0  0  0  0  0  0  0  0  0  0
    7.3000    4.1042    0.0000 C   0  0  0  0  0  0  0  0  0  0  0  0
    8.0250    4.5167    0.0000 C   0  0  0  0  0  0  0  0  0  0  0  0
    5.0375    0.8083    0.0000 C   0  0  0  0  0  0  0  0  0  0  0  0
    5.7667    2.8583    0.0000 C   0  0  0  0  0  0  0  0  0  0  0  0
    5.7625    2.0333    0.0000 C   0  0  0  0  0  0  0  0  0  0  0  0
    5.7542    1.2125    0.0000 O   0  0  0  0  0  0  0  0  0  0  0  0
    3.6167    4.1042    0.0000 C   0  0  0  0  0  0  0  0  0  0  0  0
    3.6000    0.8125    0.0000 O   0  0  0  0  0  0  0  0  0  0  0  0
    6.5917    2.8583    0.0000 O   0  0  0  0  0  0  0  0  0  0  0  0
    5.0500    3.2833    0.0000 C   0  0  0  0  0  0  0  0  0  0  0  0
    3.6042    1.6375    0.0000 C   0  0  0  0  0  0  0  0  0  0  0  0
    7.1167   -1.0792    0.0000 O   0  0  0  0  0  0  0  0  0  0  0  0
    8.0292    2.8708    0.0000 O   0  0  0  0  0  0  0  0  0  0  0  0
    8.0167    5.3417    0.0000 N   0  0  0  0  0  0  0  0  0  0  0  0
    4.3292    4.5167    0.0000 C   0  0  0  0  0  0  0  0  0  0  0  0
    5.0500    4.1042    0.0000 C   0  0  0  0  0  0  0  0  0  0  0  0
    8.7417    4.1042    0.0000 C   0  0  0  0  0  0  0  0  0  0  0  0
    1.8750    3.8958    0.0000 C   0  0  0  0  0  0  0  0  0  0  0  0
    7.6042    0.1583    0.0000 C   0  0  0  0  0  0  0  0  0  0  0  0
    5.6792   -0.7792    0.0000 O   0  0  0  0  0  0  0  0  0  0  0  0
    0.6667    2.5208    0.0000 O   0  0  0  0  0  0  0  0  0  0  0  0
    7.1500    1.5875    0.0000 O   0  0  0  0  0  0  0  0  0  0  0  0
    4.3125   -0.4292    0.0000 O   0  0  0  0  0  0  0  0  0  0  0  0
    8.7417    3.2958    0.0000 C   0  0  0  0  0  0  0  0  0  0  0  0
    2.9000    4.5167    0.0000 O   0  0  0  0  0  0  0  0  0  0  0  0
    7.8167   -0.6292    0.0000 C   0  0  0  0  0  0  0  0  0  0  0  0
    6.7125    4.6917    0.0000 O   0  0  0  0  0  0  0  0  0  0  0  0
    2.4667    1.3333    0.0000 C   0  0  0  0  0  0  0  0  0  0  0  0
    8.7375    5.7625    0.0000 C   0  0  0  0  0  0  0  0  0  0  0  0
    5.6375    3.8708    0.0000 O   0  0  0  0  0  0  0  0  0  0  0  0
    1.0750    4.1042    0.0000 C   0  0  0  0  0  0  0  0  0  0  0  0
    2.8792    3.6958    0.0000 C   0  0  0  0  0  0  0  0  0  0  0  0
    0.4375    6.5000    0.0000 C   0  0  0  0  0  0  0  0  0  0  0  0
    0.8542    4.9042    0.0000 C   0  0  0  0  0  0  0  0  0  0  0  0
    5.7542    0.3833    0.0000 C   0  0  0  0  0  0  0  0  0  0  0  0
    6.4792    1.6208    0.0000 C   0  0  0  0  0  0  0  0  0  0  0  0
    0.2167    7.2792    0.0000 Cl  0  0  0  0  0  0  0  0  0  0  0  0
    5.8792    3.2833    0.0000 C   0  0  0  0  0  0  0  0  0  0  0  0
    1.2417    6.2750    0.0000 C   0  0  0  0  0  0  0  0  0  0  0  0
   -0.1583    5.9042    0.0000 C   0  0  0  0  0  0  0  0  0  0  0  0
    1.4542    5.4792    0.0000 C   0  0  0  0  0  0  0  0  0  0  0  0
    0.0625    5.1042    0.0000 C   0  0  0  0  0  0  0  0  0  0  0  0
    7.3000    5.7542    0.0000 C   0  0  0  0  0  0  0  0  0  0  0  0
    2.8792    1.2250    0.0000 C   0  0  0  0  0  0  0  0  0  0  0  0
    4.3417    5.3417    0.0000 C   0  0  0  0  0  0  0  0  0  0  0  0
    8.5750   -0.9250    0.0000 C   0  0  0  0  0  0  0  0  0  0  0  0
    9.4667    2.8708    0.0000 C   0  0  0  0  0  0  0  0  0  0  0  0
    8.7292    6.5875    0.0000 C   0  0  0  0  0  0  0  0  0  0  0  0
    9.4542    5.3542    0.0000 C   0  0  0  0  0  0  0  0  0  0  0  0
    5.6292    4.6917    0.0000 C   0  0  0  0  0  0  0  0  0  0  0  0
    2.8667    0.4000    0.0000 C   0  0  0  0  0  0  0  0  0  0  0  0
    8.7042   -1.7375    0.0000 C   0  0  0  0  0  0  0  0  0  0  0  0
    2.7573    3.8617    0.0000 H   0  0  0  0  0  0  0  0  0  0  0  0
  2  7  1  0
  3  1  1  0
  4  8  1  0
  3  5  1  0
  6  2  1  0
  7 18  1  0
  1  8  1  0
  9 15  1  0
 21 10  1  0
 11  3  1  0
 12 20  1  0
 13 10  1  0
 14 13  1  0
 15 12  1  0
 16 17  1  0
 17  9  1  0
  9 18  1  1
 19 11  1  0
 20 23  1  0
 16 21  1  6
 22 28  1  0
 23  1  1  0
 24  6  1  0
 25 10  1  0
 14 26  1  1
 27 19  1  0
 28 27  1  0
 29 36  1  0
 30  5  1  0
 31  2  1  0
 32  6  2  0
 33  4  2  0
 34  7  2  0
 35 12  2  0
 36 25  1  0
 37 19  2  0
 38 31  1  0
 13 39  1  6
  1 40  1  6
 41 26  1  0
 22 42  1  0
 43 30  1  0
 11 44  1  6
 45 52  1  0
 46 43  1  0
 15 47  1  1
 17 48  1  1
 49 45  1  0
 22 50  1  1
 51 53  1  0
 52 54  2  0
 53 46  2  0
 54 46  1  0
 55 26  1  0
 23 56  1  1
 27 57  1  6
 58 38  1  0
 36 59  1  1
 60 41  1  0
 61 41  1  0
 62 42  1  0
 63 56  1  0
 64 58  1  0
  4  5  1  0
 16 22  1  0
 45 51  2  0
 38 24  1  0
 29 14  1  0
  3 65  1  1
M  END

> <chembl_id>
CHEMBL430312

> <chembl_pref_name>
None


$$$$

     RDKit          2D

 65 69  0  0  1  0  0  0  0  0999 V2000
   -1.3458   -3.2667    0.0000 C   0  0  0  0  0  0  0  0  0  0  0  0
    2.5167   -5.1042    0.0000 N   0  0  0  0  0  0  0  0  0  0  0  0
    2.3042   -4.3125    0.0000 C   0  0  0  0  0  0  0  0  0  0  0  0
   -1.3375   -2.4417    0.0000 C   0  0  0  0  0  0  0  0  0  0  0  0
   -2.7250   -2.8042    0.0000 C   0  0  0  0  0  0  0  0  0  0  0  0
   -2.1375   -2.2250    0.0000 N   0  0  0  0  0  0  0  0  0  0  0  0
   -2.0583   -3.6750    0.0000 O   0  0  0  0  0  0  0  0  0  0  0  0
    0.7917   -3.6875    0.0000 C   0  0  0  0  0  0  0  0  0  0  0  0
    3.0542   -2.0375    0.0000 C   0  0  0  0  0  0  0  0  0  0  0  0
   -0.6250   -2.0292    0.0000 C   0  0  0  0  0  0  0  0  0  0  0  0
    0.0750   -4.9167    0.0000 C   0  0  0  0  0  0  0  0  0  0  0  0
    2.2250   -5.8792    0.0000 C   0  0  0  0  0  0  0  0  0  0  0  0
    3.0417   -1.2125    0.0000 C   0  0  0  0  0  0  0  0  0  0  0  0
    3.7625   -0.7917    0.0000 C   0  0  0  0  0  0  0  0  0  0  0  0
    0.7917   -4.5042    0.0000 C   0  0  0  0  0  0  0  0  0  0  0  0
    1.5167   -2.4542    0.0000 C   0  0  0  0  0  0  0  0  0  0  0  0
    1.5042   -4.1000    0.0000 O   0  0  0  0  0  0  0  0  0  0  0  0
    1.5125   -3.2792    0.0000 C   0  0  0  0  0  0  0  0  0  0  0  0
   -0.6208   -1.2042    0.0000 C   0  0  0  0  0  0  0  0  0  0  0  0
   -0.6375   -4.5042    0.0000 O   0  0  0  0  0  0  0  0  0  0  0  0
    2.3417   -2.4542    0.0000 O   0  0  0  0  0  0  0  0  0  0  0  0
    0.8042   -2.0375    0.0000 C   0  0  0  0  0  0  0  0  0  0  0  0
   -0.6333   -3.6792    0.0000 C   0  0  0  0  0  0  0  0  0  0  0  0
    3.7667   -2.4417    0.0000 O   0  0  0  0  0  0  0  0  0  0  0  0
    3.7542    0.0333    0.0000 N   0  0  0  0  0  0  0  0  0  0  0  0
    2.8625   -6.4000    0.0000 O   0  0  0  0  0  0  0  0  0  0  0  0
    0.0917   -0.7917    0.0000 C   0  0  0  0  0  0  0  0  0  0  0  0
    0.8042   -1.2125    0.0000 C   0  0  0  0  0  0  0  0  0  0  0  0
    4.4792   -1.2042    0.0000 C   0  0  0  0  0  0  0  0  0  0  0  0
   -2.3500   -1.4250    0.0000 C   0  0  0  0  0  0  0  0  0  0  0  0
    3.3417   -5.1542    0.0000 C   0  0  0  0  0  0  0  0  0  0  0  0
    2.8875   -3.7250    0.0000 O   0  0  0  0  0  0  0  0  0  0  0  0
   -3.5500   -2.8000    0.0000 O   0  0  0  0  0  0  0  0  0  0  0  0
    0.0667   -5.7417    0.0000 O   0  0  0  0  0  0  0  0  0  0  0  0
    1.4250   -6.0917    0.0000 O   0  0  0  0  0  0  0  0  0  0  0  0
    4.4792   -2.0292    0.0000 C   0  0  0  0  0  0  0  0  0  0  0  0
   -1.3333   -0.7917    0.0000 O   0  0  0  0  0  0  0  0  0  0  0  0
    3.5542   -5.9500    0.0000 C   0  0  0  0  0  0  0  0  0  0  0  0
    2.4542   -0.6250    0.0000 O   0  0  0  0  0  0  0  0  0  0  0  0
   -1.7583   -3.9792    0.0000 C   0  0  0  0  0  0  0  0  0  0  0  0
    4.4667    0.4500    0.0000 C   0  0  0  0  0  0  0  0  0  0  0  0
    1.3875   -1.4500    0.0000 O   0  0  0  0  0  0  0  0  0  0  0  0
   -3.1458   -1.2042    0.0000 C   0  0  0  0  0  0  0  0  0  0  0  0
   -1.3458   -1.6167    0.0000 C   0  0  0  0  0  0  0  0  0  0  0  0
   -3.7833    1.1833    0.0000 C   0  0  0  0  0  0  0  0  0  0  0  0
   -3.3583   -0.4125    0.0000 C   0  0  0  0  0  0  0  0  0  0  0  0
    1.5042   -4.9292    0.0000 C   0  0  0  0  0  0  0  0  0  0  0  0
    2.2250   -3.6917    0.0000 C   0  0  0  0  0  0  0  0  0  0  0  0
   -3.9958    1.9708    0.0000 Cl  0  0  0  0  0  0  0  0  0  0  0  0
    1.6292   -2.0375    0.0000 C   0  0  0  0  0  0  0  0  0  0  0  0
   -2.9833    0.9625    0.0000 C   0  0  0  0  0  0  0  0  0  0  0  0
   -4.3708    0.5958    0.0000 C   0  0  0  0  0  0  0  0  0  0  0  0
   -2.7708    0.1708    0.0000 C   0  0  0  0  0  0  0  0  0  0  0  0
   -4.1583   -0.2042    0.0000 C   0  0  0  0  0  0  0  0  0  0  0  0
    3.0375    0.4375    0.0000 C   0  0  0  0  0  0  0  0  0  0  0  0
   -1.3500   -4.0875    0.0000 C   0  0  0  0  0  0  0  0  0  0  0  0
    0.1000    0.0333    0.0000 C   0  0  0  0  0  0  0  0  0  0  0  0
    3.7542   -4.4375    0.0000 C   0  0  0  0  0  0  0  0  0  0  0  0
    5.1917   -2.4417    0.0000 C   0  0  0  0  0  0  0  0  0  0  0  0
    5.1792    0.0458    0.0000 C   0  0  0  0  0  0  0  0  0  0  0  0
    4.4625    1.2750    0.0000 C   0  0  0  0  0  0  0  0  0  0  0  0
    1.3792   -0.6250    0.0000 C   0  0  0  0  0  0  0  0  0  0  0  0
   -1.3583   -4.9125    0.0000 C   0  0  0  0  0  0  0  0  0  0  0  0
    4.5750   -4.4292    0.0000 C   0  0  0  0  0  0  0  0  0  0  0  0
   -1.4673   -1.4502    0.0000 H   0  0  0  0  0  0  0  0  0  0  0  0
  2  3  1  0
  3 17  1  0
  4  1  1  0
  5  7  1  0
  4  6  1  0
  1  7  1  0
  8 15  1  0
 21  9  1  0
 10  4  1  0
 11 20  1  0
 12  2  1  0
 13  9  1  0
 14 13  1  0
 15 11  1  0
 16 18  1  0
  8 17  1  1
 18  8  1  0
 19 10  1  0
 20 23  1  0
 16 21  1  6
 22 28  1  0
 23  1  1  0
 24  9  1  0
 14 25  1  1
 26 12  1  0
 27 19  1  0
 28 27  1  0
 29 36  1  0
 30  6  1  0
 31  2  1  0
 32  3  2  0
 33  5  2  0
 34 11  2  0
 35 12  2  0
 36 24  1  0
 37 19  2  0
 38 31  1  0
 13 39  1  6
  1 40  1  6
 41 25  1  0
 22 42  1  0
 43 30  1  0
 10 44  1  6
 45 52  1  0
 46 43  1  0
 15 47  1  1
 18 48  1  1
 49 45  1  0
 22 50  1  1
 51 53  1  0
 52 54  2  0
 53 46  2  0
 54 46  1  0
 55 25  1  0
 23 56  1  1
 27 57  1  6
 31 58  1  1
 36 59  1  1
 60 41  1  0
 61 41  1  0
 62 42  1  0
 63 56  1  0
 64 58  1  0
  5  6  1  0
 16 22  1  0
 45 51  2  0
 38 26  1  0
 29 14  1  0
  4 65  1  1
M  END

> <chembl_id>
CHEMBL412634

> <chembl_pref_name>
None


$$$$

     RDKit          2D

 64 68  0  0  1  0  0  0  0  0999 V2000
    0.3875   -3.9125    0.0000 C   0  0  0  0  0  0  0  0  0  0  0  0
    4.2417   -5.7542    0.0000 N   0  0  0  0  0  0  0  0  0  0  0  0
    0.3917   -3.0875    0.0000 C   0  0  0  0  0  0  0  0  0  0  0  0
   -0.9958   -3.4500    0.0000 C   0  0  0  0  0  0  0  0  0  0  0  0
   -0.4083   -2.8667    0.0000 N   0  0  0  0  0  0  0  0  0  0  0  0
    3.9542   -6.5250    0.0000 C   0  0  0  0  0  0  0  0  0  0  0  0
    4.0292   -4.9542    0.0000 C   0  0  0  0  0  0  0  0  0  0  0  0
   -0.3333   -4.3167    0.0000 O   0  0  0  0  0  0  0  0  0  0  0  0
    2.5250   -4.3292    0.0000 C   0  0  0  0  0  0  0  0  0  0  0  0
    4.7792   -2.6792    0.0000 C   0  0  0  0  0  0  0  0  0  0  0  0
    1.1042   -2.6750    0.0000 C   0  0  0  0  0  0  0  0  0  0  0  0
    1.8042   -5.5667    0.0000 C   0  0  0  0  0  0  0  0  0  0  0  0
    4.7750   -1.8542    0.0000 C   0  0  0  0  0  0  0  0  0  0  0  0
    5.4917   -1.4417    0.0000 C   0  0  0  0  0  0  0  0  0  0  0  0
    2.5167   -5.1542    0.0000 C   0  0  0  0  0  0  0  0  0  0  0  0
    3.2417   -3.1000    0.0000 C   0  0  0  0  0  0  0  0  0  0  0  0
    3.2417   -3.9250    0.0000 C   0  0  0  0  0  0  0  0  0  0  0  0
    3.2375   -4.7417    0.0000 O   0  0  0  0  0  0  0  0  0  0  0  0
    1.1042   -1.8500    0.0000 C   0  0  0  0  0  0  0  0  0  0  0  0
    1.0917   -5.1500    0.0000 O   0  0  0  0  0  0  0  0  0  0  0  0
    4.0667   -3.1000    0.0000 O   0  0  0  0  0  0  0  0  0  0  0  0
    2.5292   -2.6792    0.0000 C   0  0  0  0  0  0  0  0  0  0  0  0
    1.0917   -4.3167    0.0000 C   0  0  0  0  0  0  0  0  0  0  0  0
    4.5917   -7.0417    0.0000 O   0  0  0  0  0  0  0  0  0  0  0  0
    5.5000   -3.0917    0.0000 O   0  0  0  0  0  0  0  0  0  0  0  0
    5.4875   -0.6167    0.0000 N   0  0  0  0  0  0  0  0  0  0  0  0
    1.8250   -1.4417    0.0000 C   0  0  0  0  0  0  0  0  0  0  0  0
    2.5375   -1.8542    0.0000 C   0  0  0  0  0  0  0  0  0  0  0  0
    6.2042   -1.8542    0.0000 C   0  0  0  0  0  0  0  0  0  0  0  0
   -0.6208   -2.0667    0.0000 C   0  0  0  0  0  0  0  0  0  0  0  0
    5.0750   -5.8000    0.0000 C   0  0  0  0  0  0  0  0  0  0  0  0
    3.1542   -6.7375    0.0000 O   0  0  0  0  0  0  0  0  0  0  0  0
   -1.8208   -3.4417    0.0000 O   0  0  0  0  0  0  0  0  0  0  0  0
    4.6167   -4.3667    0.0000 O   0  0  0  0  0  0  0  0  0  0  0  0
    1.8000   -6.3917    0.0000 O   0  0  0  0  0  0  0  0  0  0  0  0
    6.2042   -2.6792    0.0000 C   0  0  0  0  0  0  0  0  0  0  0  0
    0.4000   -1.4375    0.0000 O   0  0  0  0  0  0  0  0  0  0  0  0
    5.2792   -6.5917    0.0000 C   0  0  0  0  0  0  0  0  0  0  0  0
    4.1875   -1.2667    0.0000 O   0  0  0  0  0  0  0  0  0  0  0  0
   -0.0333   -4.6250    0.0000 C   0  0  0  0  0  0  0  0  0  0  0  0
    6.1917   -0.1917    0.0000 C   0  0  0  0  0  0  0  0  0  0  0  0
    3.1167   -2.0917    0.0000 O   0  0  0  0  0  0  0  0  0  0  0  0
   -1.4208   -1.8542    0.0000 C   0  0  0  0  0  0  0  0  0  0  0  0
    0.3875   -2.2625    0.0000 C   0  0  0  0  0  0  0  0  0  0  0  0
   -2.0500    0.5333    0.0000 C   0  0  0  0  0  0  0  0  0  0  0  0
   -1.6333   -1.0542    0.0000 C   0  0  0  0  0  0  0  0  0  0  0  0
    3.2292   -5.5750    0.0000 C   0  0  0  0  0  0  0  0  0  0  0  0
    3.9542   -4.3417    0.0000 C   0  0  0  0  0  0  0  0  0  0  0  0
   -2.2625    1.3250    0.0000 Cl  0  0  0  0  0  0  0  0  0  0  0  0
    3.3542   -2.6792    0.0000 C   0  0  0  0  0  0  0  0  0  0  0  0
   -1.2583    0.3208    0.0000 C   0  0  0  0  0  0  0  0  0  0  0  0
   -2.6375   -0.0542    0.0000 C   0  0  0  0  0  0  0  0  0  0  0  0
   -1.0458   -0.4792    0.0000 C   0  0  0  0  0  0  0  0  0  0  0  0
   -2.4208   -0.8500    0.0000 C   0  0  0  0  0  0  0  0  0  0  0  0
    4.7667   -0.2042    0.0000 C   0  0  0  0  0  0  0  0  0  0  0  0
    0.3792   -4.7292    0.0000 C   0  0  0  0  0  0  0  0  0  0  0  0
    1.8292   -0.6167    0.0000 C   0  0  0  0  0  0  0  0  0  0  0  0
    6.9250   -3.0917    0.0000 C   0  0  0  0  0  0  0  0  0  0  0  0
    6.0542   -6.8917    0.0000 C   0  0  0  0  0  0  0  0  0  0  0  0
    6.9125   -0.6042    0.0000 C   0  0  0  0  0  0  0  0  0  0  0  0
    6.1917    0.6333    0.0000 C   0  0  0  0  0  0  0  0  0  0  0  0
    3.1125   -1.2667    0.0000 C   0  0  0  0  0  0  0  0  0  0  0  0
    0.3750   -5.5542    0.0000 C   0  0  0  0  0  0  0  0  0  0  0  0
    0.2643   -2.0956    0.0000 H   0  0  0  0  0  0  0  0  0  0  0  0
  2  7  1  0
  3  1  1  0
  4  8  1  0
  3  5  1  0
  6  2  1  0
  7 18  1  0
  1  8  1  0
  9 15  1  0
 21 10  1  0
 11  3  1  0
 12 20  1  0
 13 10  1  0
 14 13  1  0
 15 12  1  0
 16 17  1  0
 17  9  1  0
  9 18  1  1
 19 11  1  0
 20 23  1  0
 16 21  1  6
 22 28  1  0
 23  1  1  0
 24  6  1  0
 25 10  1  0
 14 26  1  1
 27 19  1  0
 28 27  1  0
 29 36  1  0
 30  5  1  0
 31  2  1  0
 32  6  2  0
 33  4  2  0
 34  7  2  0
 35 12  2  0
 36 25  1  0
 37 19  2  0
 38 31  1  0
 13 39  1  6
  1 40  1  6
 41 26  1  0
 22 42  1  0
 43 30  1  0
 11 44  1  6
 45 52  1  0
 46 43  1  0
 15 47  1  1
 17 48  1  1
 49 45  1  0
 22 50  1  1
 51 53  1  0
 52 54  2  0
 53 46  2  0
 54 46  1  0
 55 26  1  0
 23 56  1  1
 27 57  1  6
 36 58  1  1
 59 38  1  0
 60 41  1  0
 61 41  1  0
 62 42  1  0
 63 56  1  0
  4  5  1  0
 16 22  1  0
 45 51  2  0
 38 24  1  0
 29 14  1  0
  3 64  1  1
M  END

> <chembl_id>
CHEMBL267568

> <chembl_pref_name>
None


$$$$

     RDKit          2D

 65 69  0  0  1  0  0  0  0  0999 V2000
   -1.3458   -3.2667    0.0000 C   0  0  0  0  0  0  0  0  0  0  0  0
    2.5167   -5.1042    0.0000 N   0  0  0  0  0  0  0  0  0  0  0  0
    2.3042   -4.3125    0.0000 C   0  0  0  0  0  0  0  0  0  0  0  0
   -1.3375   -2.4417    0.0000 C   0  0  0  0  0  0  0  0  0  0  0  0
   -2.7250   -2.8042    0.0000 C   0  0  0  0  0  0  0  0  0  0  0  0
   -2.1375   -2.2250    0.0000 N   0  0  0  0  0  0  0  0  0  0  0  0
   -2.0583   -3.6750    0.0000 O   0  0  0  0  0  0  0  0  0  0  0  0
    0.7917   -3.6875    0.0000 C   0  0  0  0  0  0  0  0  0  0  0  0
    3.0542   -2.0375    0.0000 C   0  0  0  0  0  0  0  0  0  0  0  0
   -0.6250   -2.0292    0.0000 C   0  0  0  0  0  0  0  0  0  0  0  0
    2.2250   -5.8792    0.0000 C   0  0  0  0  0  0  0  0  0  0  0  0
    0.0750   -4.9167    0.0000 C   0  0  0  0  0  0  0  0  0  0  0  0
    3.0417   -1.2125    0.0000 C   0  0  0  0  0  0  0  0  0  0  0  0
    3.7625   -0.7917    0.0000 C   0  0  0  0  0  0  0  0  0  0  0  0
    0.7917   -4.5042    0.0000 C   0  0  0  0  0  0  0  0  0  0  0  0
    1.5167   -2.4542    0.0000 C   0  0  0  0  0  0  0  0  0  0  0  0
    1.5042   -4.1000    0.0000 O   0  0  0  0  0  0  0  0  0  0  0  0
    1.5125   -3.2792    0.0000 C   0  0  0  0  0  0  0  0  0  0  0  0
   -0.6208   -1.2042    0.0000 C   0  0  0  0  0  0  0  0  0  0  0  0
   -0.6375   -4.5042    0.0000 O   0  0  0  0  0  0  0  0  0  0  0  0
    2.3417   -2.4542    0.0000 O   0  0  0  0  0  0  0  0  0  0  0  0
    0.8042   -2.0375    0.0000 C   0  0  0  0  0  0  0  0  0  0  0  0
   -0.6333   -3.6792    0.0000 C   0  0  0  0  0  0  0  0  0  0  0  0
    3.7667   -2.4417    0.0000 O   0  0  0  0  0  0  0  0  0  0  0  0
    3.7542    0.0333    0.0000 N   0  0  0  0  0  0  0  0  0  0  0  0
    3.3417   -5.1542    0.0000 C   0  0  0  0  0  0  0  0  0  0  0  0
    2.8625   -6.4000    0.0000 O   0  0  0  0  0  0  0  0  0  0  0  0
    0.0917   -0.7917    0.0000 C   0  0  0  0  0  0  0  0  0  0  0  0
    0.8042   -1.2125    0.0000 C   0  0  0  0  0  0  0  0  0  0  0  0
    4.4792   -1.2042    0.0000 C   0  0  0  0  0  0  0  0  0  0  0  0
   -2.3500   -1.4250    0.0000 C   0  0  0  0  0  0  0  0  0  0  0  0
    2.8875   -3.7250    0.0000 O   0  0  0  0  0  0  0  0  0  0  0  0
   -3.5500   -2.8000    0.0000 O   0  0  0  0  0  0  0  0  0  0  0  0
    3.5542   -5.9500    0.0000 C   0  0  0  0  0  0  0  0  0  0  0  0
    0.0667   -5.7417    0.0000 O   0  0  0  0  0  0  0  0  0  0  0  0
    1.4250   -6.0917    0.0000 O   0  0  0  0  0  0  0  0  0  0  0  0
    4.4792   -2.0292    0.0000 C   0  0  0  0  0  0  0  0  0  0  0  0
   -1.3333   -0.7917    0.0000 O   0  0  0  0  0  0  0  0  0  0  0  0
    2.4542   -0.6250    0.0000 O   0  0  0  0  0  0  0  0  0  0  0  0
   -1.7583   -3.9792    0.0000 C   0  0  0  0  0  0  0  0  0  0  0  0
    4.4667    0.4500    0.0000 C   0  0  0  0  0  0  0  0  0  0  0  0
    1.3875   -1.4500    0.0000 O   0  0  0  0  0  0  0  0  0  0  0  0
   -3.1458   -1.2042    0.0000 C   0  0  0  0  0  0  0  0  0  0  0  0
   -1.3458   -1.6167    0.0000 C   0  0  0  0  0  0  0  0  0  0  0  0
   -3.7833    1.1833    0.0000 C   0  0  0  0  0  0  0  0  0  0  0  0
   -3.3583   -0.4125    0.0000 C   0  0  0  0  0  0  0  0  0  0  0  0
    1.5042   -4.9292    0.0000 C   0  0  0  0  0  0  0  0  0  0  0  0
    2.2250   -3.6917    0.0000 C   0  0  0  0  0  0  0  0  0  0  0  0
   -3.9958    1.9708    0.0000 Cl  0  0  0  0  0  0  0  0  0  0  0  0
    1.6292   -2.0375    0.0000 C   0  0  0  0  0  0  0  0  0  0  0  0
   -2.9833    0.9625    0.0000 C   0  0  0  0  0  0  0  0  0  0  0  0
   -4.3708    0.5958    0.0000 C   0  0  0  0  0  0  0  0  0  0  0  0
   -2.7708    0.1708    0.0000 C   0  0  0  0  0  0  0  0  0  0  0  0
   -4.1583   -0.2042    0.0000 C   0  0  0  0  0  0  0  0  0  0  0  0
    3.0375    0.4375    0.0000 C   0  0  0  0  0  0  0  0  0  0  0  0
   -1.3500   -4.0875    0.0000 C   0  0  0  0  0  0  0  0  0  0  0  0
    3.1292   -4.3542    0.0000 C   0  0  0  0  0  0  0  0  0  0  0  0
    4.1667   -5.1542    0.0000 C   0  0  0  0  0  0  0  0  0  0  0  0
    0.1000    0.0333    0.0000 C   0  0  0  0  0  0  0  0  0  0  0  0
    5.1917   -2.4417    0.0000 C   0  0  0  0  0  0  0  0  0  0  0  0
    4.4625    1.2750    0.0000 C   0  0  0  0  0  0  0  0  0  0  0  0
    5.1792    0.0458    0.0000 C   0  0  0  0  0  0  0  0  0  0  0  0
    1.3792   -0.6250    0.0000 C   0  0  0  0  0  0  0  0  0  0  0  0
   -1.3583   -4.9125    0.0000 C   0  0  0  0  0  0  0  0  0  0  0  0
   -1.4673   -1.4502    0.0000 H   0  0  0  0  0  0  0  0  0  0  0  0
  2  3  1  0
  3 17  1  0
  4  1  1  0
  5  7  1  0
  4  6  1  0
  1  7  1  0
  8 15  1  0
 21  9  1  0
 10  4  1  0
 11  2  1  0
 12 20  1  0
 13  9  1  0
 14 13  1  0
 15 12  1  0
 16 18  1  0
  8 17  1  1
 18  8  1  0
 19 10  1  0
 20 23  1  0
 16 21  1  6
 22 29  1  0
 23  1  1  0
 24  9  1  0
 14 25  1  1
 26  2  1  0
 27 11  1  0
 28 19  1  0
 29 28  1  0
 30 37  1  0
 31  6  1  0
 32  3  2  0
 33  5  2  0
 34 26  1  0
 35 12  2  0
 36 11  2  0
 37 24  1  0
 38 19  2  0
 13 39  1  6
  1 40  1  6
 41 25  1  0
 22 42  1  0
 43 31  1  0
 10 44  1  6
 45 52  1  0
 46 43  1  0
 15 47  1  1
 18 48  1  1
 49 45  1  0
 22 50  1  1
 51 53  1  0
 52 54  2  0
 53 46  2  0
 54 46  1  0
 55 25  1  0
 23 56  1  1
 57 26  1  0
 58 26  1  0
 28 59  1  6
 37 60  1  1
 61 41  1  0
 62 41  1  0
 63 42  1  0
 64 56  1  0
  5  6  1  0
 16 22  1  0
 45 51  2  0
 34 27  1  0
 30 14  1  0
  4 65  1  1
M  END

> <chembl_id>
CHEMBL273536

> <chembl_pref_name>
None


$$$$

     RDKit          2D

 62 66  0  0  1  0  0  0  0  0999 V2000
   -0.2208   -4.3417    0.0000 C   0  0  0  0  0  0  0  0  0  0  0  0
   -0.2208   -3.5167    0.0000 C   0  0  0  0  0  0  0  0  0  0  0  0
   -1.6083   -3.8792    0.0000 C   0  0  0  0  0  0  0  0  0  0  0  0
   -1.0208   -3.3042    0.0000 N   0  0  0  0  0  0  0  0  0  0  0  0
   -0.9375   -4.7542    0.0000 O   0  0  0  0  0  0  0  0  0  0  0  0
    1.9167   -4.7667    0.0000 C   0  0  0  0  0  0  0  0  0  0  0  0
    4.1750   -3.1167    0.0000 C   0  0  0  0  0  0  0  0  0  0  0  0
    0.4917   -3.1042    0.0000 C   0  0  0  0  0  0  0  0  0  0  0  0
    3.4250   -5.3917    0.0000 C   0  0  0  0  0  0  0  0  0  0  0  0
    1.1917   -6.0000    0.0000 C   0  0  0  0  0  0  0  0  0  0  0  0
    4.1667   -2.2917    0.0000 C   0  0  0  0  0  0  0  0  0  0  0  0
    4.8792   -1.8750    0.0000 C   0  0  0  0  0  0  0  0  0  0  0  0
    1.9125   -5.5917    0.0000 C   0  0  0  0  0  0  0  0  0  0  0  0
    4.0042   -5.9750    0.0000 N   0  0  0  0  0  0  0  0  0  0  0  0
    2.6375   -3.5292    0.0000 C   0  0  0  0  0  0  0  0  0  0  0  0
    2.6292   -4.3542    0.0000 C   0  0  0  0  0  0  0  0  0  0  0  0
    0.5000   -2.2792    0.0000 C   0  0  0  0  0  0  0  0  0  0  0  0
    2.6292   -5.1792    0.0000 O   0  0  0  0  0  0  0  0  0  0  0  0
    0.4792   -5.5792    0.0000 O   0  0  0  0  0  0  0  0  0  0  0  0
    3.4625   -3.5292    0.0000 O   0  0  0  0  0  0  0  0  0  0  0  0
    1.9250   -3.1167    0.0000 C   0  0  0  0  0  0  0  0  0  0  0  0
    0.4875   -4.7542    0.0000 C   0  0  0  0  0  0  0  0  0  0  0  0
    4.8917   -3.5250    0.0000 O   0  0  0  0  0  0  0  0  0  0  0  0
    4.8792   -1.0500    0.0000 N   0  0  0  0  0  0  0  0  0  0  0  0
    1.2167   -1.8750    0.0000 C   0  0  0  0  0  0  0  0  0  0  0  0
    1.9292   -2.2917    0.0000 C   0  0  0  0  0  0  0  0  0  0  0  0
    5.6000   -2.2875    0.0000 C   0  0  0  0  0  0  0  0  0  0  0  0
   -1.2333   -2.5042    0.0000 C   0  0  0  0  0  0  0  0  0  0  0  0
   -2.4333   -3.8792    0.0000 O   0  0  0  0  0  0  0  0  0  0  0  0
    3.8792   -6.7875    0.0000 C   0  0  0  0  0  0  0  0  0  0  0  0
    4.0042   -4.8042    0.0000 O   0  0  0  0  0  0  0  0  0  0  0  0
    1.1917   -6.8250    0.0000 O   0  0  0  0  0  0  0  0  0  0  0  0
    5.6000   -3.1125    0.0000 C   0  0  0  0  0  0  0  0  0  0  0  0
   -0.2083   -1.8667    0.0000 O   0  0  0  0  0  0  0  0  0  0  0  0
    4.6125   -7.1667    0.0000 O   0  0  0  0  0  0  0  0  0  0  0  0
    3.5792   -1.7042    0.0000 O   0  0  0  0  0  0  0  0  0  0  0  0
   -0.6375   -5.0542    0.0000 C   0  0  0  0  0  0  0  0  0  0  0  0
    5.5875   -0.6292    0.0000 C   0  0  0  0  0  0  0  0  0  0  0  0
    2.5042   -2.5292    0.0000 O   0  0  0  0  0  0  0  0  0  0  0  0
   -2.0250   -2.2875    0.0000 C   0  0  0  0  0  0  0  0  0  0  0  0
    4.8250   -5.8500    0.0000 C   0  0  0  0  0  0  0  0  0  0  0  0
   -0.2208   -2.6917    0.0000 C   0  0  0  0  0  0  0  0  0  0  0  0
   -2.6583    0.1000    0.0000 C   0  0  0  0  0  0  0  0  0  0  0  0
   -2.2375   -1.4917    0.0000 C   0  0  0  0  0  0  0  0  0  0  0  0
    2.6250   -6.0042    0.0000 C   0  0  0  0  0  0  0  0  0  0  0  0
    3.3417   -4.7750    0.0000 C   0  0  0  0  0  0  0  0  0  0  0  0
   -2.8708    0.8958    0.0000 Cl  0  0  0  0  0  0  0  0  0  0  0  0
    2.7500   -3.1167    0.0000 C   0  0  0  0  0  0  0  0  0  0  0  0
   -3.2458   -0.4875    0.0000 C   0  0  0  0  0  0  0  0  0  0  0  0
   -1.8625   -0.1167    0.0000 C   0  0  0  0  0  0  0  0  0  0  0  0
   -3.0333   -1.2792    0.0000 C   0  0  0  0  0  0  0  0  0  0  0  0
   -1.6500   -0.9125    0.0000 C   0  0  0  0  0  0  0  0  0  0  0  0
    4.1542   -0.6417    0.0000 C   0  0  0  0  0  0  0  0  0  0  0  0
   -0.2333   -5.1667    0.0000 C   0  0  0  0  0  0  0  0  0  0  0  0
    1.2167   -1.0500    0.0000 C   0  0  0  0  0  0  0  0  0  0  0  0
    5.1917   -6.5792    0.0000 C   0  0  0  0  0  0  0  0  0  0  0  0
    6.3167   -3.5250    0.0000 C   0  0  0  0  0  0  0  0  0  0  0  0
    6.3042   -1.0375    0.0000 C   0  0  0  0  0  0  0  0  0  0  0  0
    5.5792    0.1958    0.0000 C   0  0  0  0  0  0  0  0  0  0  0  0
    2.5042   -1.7042    0.0000 C   0  0  0  0  0  0  0  0  0  0  0  0
   -0.2333   -5.9917    0.0000 C   0  0  0  0  0  0  0  0  0  0  0  0
   -0.3530   -2.5255    0.0000 H   0  0  0  0  0  0  0  0  0  0  0  0
  2  1  1  0
  3  5  1  0
  2  4  1  0
  1  5  1  0
  6 13  1  0
 20  7  1  0
  8  2  1  0
  9 18  1  0
 10 19  1  0
 11  7  1  0
 12 11  1  0
 13 10  1  0
 14  9  1  0
 15 16  1  0
 16  6  1  0
 17  8  1  0
  6 18  1  1
 19 22  1  0
 15 20  1  6
 21 26  1  0
 22  1  1  0
 23  7  1  0
 12 24  1  1
 25 17  1  0
 26 25  1  0
 27 33  1  0
 28  4  1  0
 29  3  2  0
 30 14  1  0
 31  9  2  0
 32 10  2  0
 33 23  1  0
 34 17  2  0
 35 30  1  0
 11 36  1  6
  1 37  1  6
 38 24  1  0
 21 39  1  0
 40 28  1  0
 41 14  1  0
  8 42  1  6
 43 50  2  0
 44 40  1  0
 13 45  1  1
 16 46  1  1
 47 43  1  0
 21 48  1  1
 49 51  2  0
 50 52  1  0
 51 44  1  0
 52 44  2  0
 53 24  1  0
 22 54  1  1
 25 55  1  6
 56 41  1  0
 33 57  1  1
 58 38  1  0
 59 38  1  0
 60 39  1  0
 61 54  1  0
  3  4  1  0
 15 21  1  0
 43 49  1  0
 56 35  1  0
 27 12  1  0
  2 62  1  1
M  END

> <chembl_id>
CHEMBL12204

> <chembl_pref_name>
None


$$$$

     RDKit          2D

 62 66  0  0  1  0  0  0  0  0999 V2000
   -0.2208   -4.3917    0.0000 C   0  0  0  0  0  0  0  0  0  0  0  0
   -0.2208   -3.5667    0.0000 C   0  0  0  0  0  0  0  0  0  0  0  0
   -1.6083   -3.9292    0.0000 C   0  0  0  0  0  0  0  0  0  0  0  0
   -1.0208   -3.3500    0.0000 N   0  0  0  0  0  0  0  0  0  0  0  0
   -0.9375   -4.8000    0.0000 O   0  0  0  0  0  0  0  0  0  0  0  0
    1.9167   -4.8125    0.0000 C   0  0  0  0  0  0  0  0  0  0  0  0
    4.1750   -3.1625    0.0000 C   0  0  0  0  0  0  0  0  0  0  0  0
    0.4917   -3.1542    0.0000 C   0  0  0  0  0  0  0  0  0  0  0  0
    1.1917   -6.0417    0.0000 C   0  0  0  0  0  0  0  0  0  0  0  0
    4.1667   -2.3375    0.0000 C   0  0  0  0  0  0  0  0  0  0  0  0
    4.8792   -1.9167    0.0000 C   0  0  0  0  0  0  0  0  0  0  0  0
    1.9125   -5.6375    0.0000 C   0  0  0  0  0  0  0  0  0  0  0  0
    3.4250   -5.4375    0.0000 C   0  0  0  0  0  0  0  0  0  0  0  0
    2.6375   -3.5792    0.0000 C   0  0  0  0  0  0  0  0  0  0  0  0
    2.6292   -4.4042    0.0000 C   0  0  0  0  0  0  0  0  0  0  0  0
    0.5000   -2.3292    0.0000 C   0  0  0  0  0  0  0  0  0  0  0  0
    2.6292   -5.2250    0.0000 O   0  0  0  0  0  0  0  0  0  0  0  0
    0.4792   -5.6292    0.0000 O   0  0  0  0  0  0  0  0  0  0  0  0
    3.4625   -3.5792    0.0000 O   0  0  0  0  0  0  0  0  0  0  0  0
    1.9250   -3.1625    0.0000 C   0  0  0  0  0  0  0  0  0  0  0  0
    0.4875   -4.8042    0.0000 C   0  0  0  0  0  0  0  0  0  0  0  0
    4.8917   -3.5667    0.0000 O   0  0  0  0  0  0  0  0  0  0  0  0
    4.8792   -1.0917    0.0000 N   0  0  0  0  0  0  0  0  0  0  0  0
    3.6375   -6.2292    0.0000 N   0  0  0  0  0  0  0  0  0  0  0  0
    1.2167   -1.9167    0.0000 C   0  0  0  0  0  0  0  0  0  0  0  0
    1.9292   -2.3375    0.0000 C   0  0  0  0  0  0  0  0  0  0  0  0
    5.6000   -2.3292    0.0000 C   0  0  0  0  0  0  0  0  0  0  0  0
   -1.2333   -2.5500    0.0000 C   0  0  0  0  0  0  0  0  0  0  0  0
   -2.4333   -3.9250    0.0000 O   0  0  0  0  0  0  0  0  0  0  0  0
    1.1917   -6.8667    0.0000 O   0  0  0  0  0  0  0  0  0  0  0  0
    4.0042   -4.8500    0.0000 O   0  0  0  0  0  0  0  0  0  0  0  0
    5.6000   -3.1542    0.0000 C   0  0  0  0  0  0  0  0  0  0  0  0
   -0.2083   -1.9167    0.0000 O   0  0  0  0  0  0  0  0  0  0  0  0
    3.5792   -1.7500    0.0000 O   0  0  0  0  0  0  0  0  0  0  0  0
   -0.6375   -5.1042    0.0000 C   0  0  0  0  0  0  0  0  0  0  0  0
    5.5875   -0.6750    0.0000 C   0  0  0  0  0  0  0  0  0  0  0  0
    2.5042   -2.5750    0.0000 O   0  0  0  0  0  0  0  0  0  0  0  0
   -2.0250   -2.3292    0.0000 C   0  0  0  0  0  0  0  0  0  0  0  0
   -0.2208   -2.7417    0.0000 C   0  0  0  0  0  0  0  0  0  0  0  0
   -2.6583    0.0583    0.0000 C   0  0  0  0  0  0  0  0  0  0  0  0
   -2.2375   -1.5375    0.0000 C   0  0  0  0  0  0  0  0  0  0  0  0
    2.6250   -6.0542    0.0000 C   0  0  0  0  0  0  0  0  0  0  0  0
    3.3417   -4.8167    0.0000 C   0  0  0  0  0  0  0  0  0  0  0  0
   -2.8708    0.8458    0.0000 Cl  0  0  0  0  0  0  0  0  0  0  0  0
    2.7500   -3.1625    0.0000 C   0  0  0  0  0  0  0  0  0  0  0  0
   -1.8625   -0.1542    0.0000 C   0  0  0  0  0  0  0  0  0  0  0  0
   -3.2458   -0.5292    0.0000 C   0  0  0  0  0  0  0  0  0  0  0  0
   -1.6500   -0.9542    0.0000 C   0  0  0  0  0  0  0  0  0  0  0  0
   -3.0333   -1.3292    0.0000 C   0  0  0  0  0  0  0  0  0  0  0  0
    3.1250   -6.8750    0.0000 C   0  0  0  0  0  0  0  0  0  0  0  0
    4.4125   -6.5292    0.0000 C   0  0  0  0  0  0  0  0  0  0  0  0
    4.1542   -0.6875    0.0000 C   0  0  0  0  0  0  0  0  0  0  0  0
   -0.2333   -5.2125    0.0000 C   0  0  0  0  0  0  0  0  0  0  0  0
    1.2167   -1.0917    0.0000 C   0  0  0  0  0  0  0  0  0  0  0  0
    6.3167   -3.5667    0.0000 C   0  0  0  0  0  0  0  0  0  0  0  0
    5.5792    0.1500    0.0000 C   0  0  0  0  0  0  0  0  0  0  0  0
    6.3042   -1.0792    0.0000 C   0  0  0  0  0  0  0  0  0  0  0  0
    2.5042   -1.7500    0.0000 C   0  0  0  0  0  0  0  0  0  0  0  0
   -0.2333   -6.0375    0.0000 C   0  0  0  0  0  0  0  0  0  0  0  0
    4.3667   -7.3542    0.0000 C   0  0  0  0  0  0  0  0  0  0  0  0
    3.5750   -7.5667    0.0000 C   0  0  0  0  0  0  0  0  0  0  0  0
   -0.3506   -2.5752    0.0000 H   0  0  0  0  0  0  0  0  0  0  0  0
  2  1  1  0
  3  5  1  0
  2  4  1  0
  1  5  1  0
  6 12  1  0
 19  7  1  0
  8  2  1  0
  9 18  1  0
 10  7  1  0
 11 10  1  0
 12  9  1  0
 13 17  1  0
 14 15  1  0
 15  6  1  0
 16  8  1  0
  6 17  1  1
 18 21  1  0
 14 19  1  6
 20 26  1  0
 21  1  1  0
 22  7  1  0
 11 23  1  1
 24 13  1  0
 25 16  1  0
 26 25  1  0
 27 32  1  0
 28  4  1  0
 29  3  2  0
 30  9  2  0
 31 13  2  0
 32 22  1  0
 33 16  2  0
 10 34  1  6
  1 35  1  6
 36 23  1  0
 20 37  1  0
 38 28  1  0
  8 39  1  6
 40 47  1  0
 41 38  1  0
 12 42  1  1
 15 43  1  1
 44 40  1  0
 20 45  1  1
 46 48  1  0
 47 49  2  0
 48 41  2  0
 49 41  1  0
 50 24  1  0
 51 24  1  0
 52 23  1  0
 21 53  1  1
 25 54  1  6
 32 55  1  1
 56 36  1  0
 57 36  1  0
 58 37  1  0
 59 53  1  0
 60 51  1  0
 61 50  1  0
  3  4  1  0
 14 20  1  0
 40 46  2  0
 60 61  1  0
 27 11  1  0
  2 62  1  1
M  END

> <chembl_id>
CHEMBL12666

> <chembl_pref_name>
None


$$$$

     RDKit          2D

 62 66  0  0  1  0  0  0  0  0999 V2000
   -0.2208   -4.3917    0.0000 C   0  0  0  0  0  0  0  0  0  0  0  0
   -0.2208   -3.5667    0.0000 C   0  0  0  0  0  0  0  0  0  0  0  0
   -1.6083   -3.9292    0.0000 C   0  0  0  0  0  0  0  0  0  0  0  0
   -1.0208   -3.3500    0.0000 N   0  0  0  0  0  0  0  0  0  0  0  0
   -0.9375   -4.8000    0.0000 O   0  0  0  0  0  0  0  0  0  0  0  0
    1.9167   -4.8125    0.0000 C   0  0  0  0  0  0  0  0  0  0  0  0
    4.1750   -3.1625    0.0000 C   0  0  0  0  0  0  0  0  0  0  0  0
    0.4917   -3.1542    0.0000 C   0  0  0  0  0  0  0  0  0  0  0  0
    1.1917   -6.0417    0.0000 C   0  0  0  0  0  0  0  0  0  0  0  0
    4.1667   -2.3375    0.0000 C   0  0  0  0  0  0  0  0  0  0  0  0
    4.8792   -1.9167    0.0000 C   0  0  0  0  0  0  0  0  0  0  0  0
    1.9125   -5.6375    0.0000 C   0  0  0  0  0  0  0  0  0  0  0  0
    2.6375   -3.5792    0.0000 C   0  0  0  0  0  0  0  0  0  0  0  0
    2.6292   -4.4042    0.0000 C   0  0  0  0  0  0  0  0  0  0  0  0
    0.5000   -2.3292    0.0000 C   0  0  0  0  0  0  0  0  0  0  0  0
    0.4792   -5.6292    0.0000 O   0  0  0  0  0  0  0  0  0  0  0  0
    3.4625   -3.5792    0.0000 O   0  0  0  0  0  0  0  0  0  0  0  0
    2.6292   -5.2250    0.0000 O   0  0  0  0  0  0  0  0  0  0  0  0
    1.9250   -3.1625    0.0000 C   0  0  0  0  0  0  0  0  0  0  0  0
    0.4875   -4.8042    0.0000 C   0  0  0  0  0  0  0  0  0  0  0  0
    3.4250   -5.4375    0.0000 C   0  0  0  0  0  0  0  0  0  0  0  0
    4.8917   -3.5667    0.0000 O   0  0  0  0  0  0  0  0  0  0  0  0
    4.8792   -1.0917    0.0000 N   0  0  0  0  0  0  0  0  0  0  0  0
    1.2167   -1.9167    0.0000 C   0  0  0  0  0  0  0  0  0  0  0  0
    1.9292   -2.3375    0.0000 C   0  0  0  0  0  0  0  0  0  0  0  0
    5.6000   -2.3292    0.0000 C   0  0  0  0  0  0  0  0  0  0  0  0
   -1.2333   -2.5500    0.0000 C   0  0  0  0  0  0  0  0  0  0  0  0
   -2.4333   -3.9250    0.0000 O   0  0  0  0  0  0  0  0  0  0  0  0
    1.1917   -6.8667    0.0000 O   0  0  0  0  0  0  0  0  0  0  0  0
    5.6000   -3.1542    0.0000 C   0  0  0  0  0  0  0  0  0  0  0  0
   -0.2083   -1.9167    0.0000 O   0  0  0  0  0  0  0  0  0  0  0  0
    4.0042   -4.8500    0.0000 O   0  0  0  0  0  0  0  0  0  0  0  0
    3.6417   -6.2292    0.0000 C   0  0  0  0  0  0  0  0  0  0  0  0
    3.5792   -1.7500    0.0000 O   0  0  0  0  0  0  0  0  0  0  0  0
   -0.6375   -5.1042    0.0000 C   0  0  0  0  0  0  0  0  0  0  0  0
    5.5875   -0.6750    0.0000 C   0  0  0  0  0  0  0  0  0  0  0  0
    2.5042   -2.5750    0.0000 O   0  0  0  0  0  0  0  0  0  0  0  0
   -2.0250   -2.3292    0.0000 C   0  0  0  0  0  0  0  0  0  0  0  0
   -0.2208   -2.7417    0.0000 C   0  0  0  0  0  0  0  0  0  0  0  0
   -2.6583    0.0583    0.0000 C   0  0  0  0  0  0  0  0  0  0  0  0
   -2.2375   -1.5375    0.0000 C   0  0  0  0  0  0  0  0  0  0  0  0
    2.6250   -6.0542    0.0000 C   0  0  0  0  0  0  0  0  0  0  0  0
    3.3417   -4.8167    0.0000 C   0  0  0  0  0  0  0  0  0  0  0  0
   -2.8708    0.8458    0.0000 Cl  0  0  0  0  0  0  0  0  0  0  0  0
    2.7500   -3.1625    0.0000 C   0  0  0  0  0  0  0  0  0  0  0  0
   -1.8625   -0.1542    0.0000 C   0  0  0  0  0  0  0  0  0  0  0  0
   -3.2458   -0.5292    0.0000 C   0  0  0  0  0  0  0  0  0  0  0  0
   -1.6500   -0.9542    0.0000 C   0  0  0  0  0  0  0  0  0  0  0  0
   -3.0333   -1.3292    0.0000 C   0  0  0  0  0  0  0  0  0  0  0  0
    4.1542   -0.6875    0.0000 C   0  0  0  0  0  0  0  0  0  0  0  0
   -0.2333   -5.2125    0.0000 C   0  0  0  0  0  0  0  0  0  0  0  0
    1.2167   -1.0917    0.0000 C   0  0  0  0  0  0  0  0  0  0  0  0
    6.3167   -3.5667    0.0000 C   0  0  0  0  0  0  0  0  0  0  0  0
    4.3292   -6.6792    0.0000 C   0  0  0  0  0  0  0  0  0  0  0  0
    3.0000   -6.7500    0.0000 C   0  0  0  0  0  0  0  0  0  0  0  0
    5.5792    0.1500    0.0000 C   0  0  0  0  0  0  0  0  0  0  0  0
    6.3042   -1.0792    0.0000 C   0  0  0  0  0  0  0  0  0  0  0  0
    2.5042   -1.7500    0.0000 C   0  0  0  0  0  0  0  0  0  0  0  0
   -0.2333   -6.0375    0.0000 C   0  0  0  0  0  0  0  0  0  0  0  0
    3.3000   -7.5167    0.0000 C   0  0  0  0  0  0  0  0  0  0  0  0
    4.1250   -7.4750    0.0000 C   0  0  0  0  0  0  0  0  0  0  0  0
   -0.3506   -2.5752    0.0000 H   0  0  0  0  0  0  0  0  0  0  0  0
  2  1  1  0
  3  5  1  0
  2  4  1  0
  1  5  1  0
  6 12  1  0
 17  7  1  0
  8  2  1  0
  9 16  1  0
 10  7  1  0
 11 10  1  0
 12  9  1  0
 13 14  1  0
 14  6  1  0
 15  8  1  0
 16 20  1  0
 13 17  1  6
  6 18  1  1
 19 25  1  0
 20  1  1  0
 21 18  1  0
 22  7  1  0
 11 23  1  1
 24 15  1  0
 25 24  1  0
 26 30  1  0
 27  4  1  0
 28  3  2  0
 29  9  2  0
 30 22  1  0
 31 15  2  0
 32 21  2  0
 33 21  1  0
 10 34  1  6
  1 35  1  6
 36 23  1  0
 19 37  1  0
 38 27  1  0
  8 39  1  6
 40 47  1  0
 41 38  1  0
 12 42  1  1
 14 43  1  1
 44 40  1  0
 19 45  1  1
 46 48  1  0
 47 49  2  0
 48 41  2  0
 49 41  1  0
 50 23  1  0
 20 51  1  1
 24 52  1  6
 30 53  1  1
 54 33  1  0
 55 33  1  0
 56 36  1  0
 57 36  1  0
 58 37  1  0
 59 51  1  0
 60 55  1  0
 61 54  1  0
  3  4  1  0
 13 19  1  0
 40 46  2  0
 61 60  1  0
 26 11  1  0
  2 62  1  1
M  END

> <chembl_id>
CHEMBL428008

> <chembl_pref_name>
None


$$$$

     RDKit          2D

 63 67  0  0  1  0  0  0  0  0999 V2000
   -1.3458   -3.2667    0.0000 C   0  0  0  0  0  0  0  0  0  0  0  0
   -1.3375   -2.4417    0.0000 C   0  0  0  0  0  0  0  0  0  0  0  0
    2.5167   -5.1042    0.0000 N   0  0  0  0  0  0  0  0  0  0  0  0
   -2.7250   -2.8042    0.0000 C   0  0  0  0  0  0  0  0  0  0  0  0
   -2.1375   -2.2250    0.0000 N   0  0  0  0  0  0  0  0  0  0  0  0
   -2.0583   -3.6750    0.0000 O   0  0  0  0  0  0  0  0  0  0  0  0
    2.3042   -4.3125    0.0000 C   0  0  0  0  0  0  0  0  0  0  0  0
    0.7917   -3.6875    0.0000 C   0  0  0  0  0  0  0  0  0  0  0  0
    3.0542   -2.0375    0.0000 C   0  0  0  0  0  0  0  0  0  0  0  0
   -0.6250   -2.0292    0.0000 C   0  0  0  0  0  0  0  0  0  0  0  0
    0.0750   -4.9167    0.0000 C   0  0  0  0  0  0  0  0  0  0  0  0
    3.0417   -1.2125    0.0000 C   0  0  0  0  0  0  0  0  0  0  0  0
    3.7625   -0.7917    0.0000 C   0  0  0  0  0  0  0  0  0  0  0  0
    0.7917   -4.5042    0.0000 C   0  0  0  0  0  0  0  0  0  0  0  0
    2.2250   -5.8792    0.0000 C   0  0  0  0  0  0  0  0  0  0  0  0
    1.5167   -2.4542    0.0000 C   0  0  0  0  0  0  0  0  0  0  0  0
    1.5125   -3.2792    0.0000 C   0  0  0  0  0  0  0  0  0  0  0  0
    1.5042   -4.1000    0.0000 O   0  0  0  0  0  0  0  0  0  0  0  0
   -0.6208   -1.2042    0.0000 C   0  0  0  0  0  0  0  0  0  0  0  0
   -0.6375   -4.5042    0.0000 O   0  0  0  0  0  0  0  0  0  0  0  0
    2.3417   -2.4542    0.0000 O   0  0  0  0  0  0  0  0  0  0  0  0
    0.8042   -2.0375    0.0000 C   0  0  0  0  0  0  0  0  0  0  0  0
   -0.6333   -3.6792    0.0000 C   0  0  0  0  0  0  0  0  0  0  0  0
    3.7667   -2.4417    0.0000 O   0  0  0  0  0  0  0  0  0  0  0  0
    3.7542    0.0333    0.0000 N   0  0  0  0  0  0  0  0  0  0  0  0
    0.0917   -0.7917    0.0000 C   0  0  0  0  0  0  0  0  0  0  0  0
    0.8042   -1.2125    0.0000 C   0  0  0  0  0  0  0  0  0  0  0  0
    4.4792   -1.2042    0.0000 C   0  0  0  0  0  0  0  0  0  0  0  0
   -2.3500   -1.4250    0.0000 C   0  0  0  0  0  0  0  0  0  0  0  0
    2.8625   -6.4000    0.0000 N   0  0  0  0  0  0  0  0  0  0  0  0
   -3.5500   -2.8000    0.0000 O   0  0  0  0  0  0  0  0  0  0  0  0
    2.8875   -3.7250    0.0000 O   0  0  0  0  0  0  0  0  0  0  0  0
    0.0667   -5.7417    0.0000 O   0  0  0  0  0  0  0  0  0  0  0  0
    1.4250   -6.0917    0.0000 O   0  0  0  0  0  0  0  0  0  0  0  0
    4.4792   -2.0292    0.0000 C   0  0  0  0  0  0  0  0  0  0  0  0
   -1.3333   -0.7917    0.0000 O   0  0  0  0  0  0  0  0  0  0  0  0
    2.4542   -0.6250    0.0000 O   0  0  0  0  0  0  0  0  0  0  0  0
   -1.7583   -3.9792    0.0000 C   0  0  0  0  0  0  0  0  0  0  0  0
    3.3417   -5.1542    0.0000 C   0  0  0  0  0  0  0  0  0  0  0  0
    4.4667    0.4500    0.0000 C   0  0  0  0  0  0  0  0  0  0  0  0
    1.3875   -1.4500    0.0000 O   0  0  0  0  0  0  0  0  0  0  0  0
   -3.1458   -1.2042    0.0000 C   0  0  0  0  0  0  0  0  0  0  0  0
   -1.3458   -1.6167    0.0000 C   0  0  0  0  0  0  0  0  0  0  0  0
    3.5542   -5.9500    0.0000 C   0  0  0  0  0  0  0  0  0  0  0  0
   -3.7833    1.1833    0.0000 C   0  0  0  0  0  0  0  0  0  0  0  0
   -3.3583   -0.4125    0.0000 C   0  0  0  0  0  0  0  0  0  0  0  0
    1.5042   -4.9292    0.0000 C   0  0  0  0  0  0  0  0  0  0  0  0
    2.2250   -3.6917    0.0000 C   0  0  0  0  0  0  0  0  0  0  0  0
   -3.9958    1.9708    0.0000 Cl  0  0  0  0  0  0  0  0  0  0  0  0
    1.6292   -2.0375    0.0000 C   0  0  0  0  0  0  0  0  0  0  0  0
   -2.9833    0.9625    0.0000 C   0  0  0  0  0  0  0  0  0  0  0  0
   -4.3708    0.5958    0.0000 C   0  0  0  0  0  0  0  0  0  0  0  0
   -2.7708    0.1708    0.0000 C   0  0  0  0  0  0  0  0  0  0  0  0
   -4.1583   -0.2042    0.0000 C   0  0  0  0  0  0  0  0  0  0  0  0
    3.0375    0.4375    0.0000 C   0  0  0  0  0  0  0  0  0  0  0  0
   -1.3500   -4.0875    0.0000 C   0  0  0  0  0  0  0  0  0  0  0  0
    0.1000    0.0333    0.0000 C   0  0  0  0  0  0  0  0  0  0  0  0
    5.1917   -2.4417    0.0000 C   0  0  0  0  0  0  0  0  0  0  0  0
    4.4625    1.2750    0.0000 C   0  0  0  0  0  0  0  0  0  0  0  0
    5.1792    0.0458    0.0000 C   0  0  0  0  0  0  0  0  0  0  0  0
    1.3792   -0.6250    0.0000 C   0  0  0  0  0  0  0  0  0  0  0  0
   -1.3583   -4.9125    0.0000 C   0  0  0  0  0  0  0  0  0  0  0  0
   -1.4673   -1.4502    0.0000 H   0  0  0  0  0  0  0  0  0  0  0  0
  2  1  1  0
  3  7  1  0
  4  6  1  0
  2  5  1  0
  1  6  1  0
  7 18  1  0
  8 14  1  0
 21  9  1  0
 10  2  1  0
 11 20  1  0
 12  9  1  0
 13 12  1  0
 14 11  1  0
 15  3  1  0
 16 17  1  0
 17  8  1  0
  8 18  1  1
 19 10  1  0
 20 23  1  0
 16 21  1  6
 22 27  1  0
 23  1  1  0
 24  9  1  0
 13 25  1  1
 26 19  1  0
 27 26  1  0
 28 35  1  0
 29  5  1  0
 30 15  1  0
 31  4  2  0
 32  7  2  0
 33 11  2  0
 34 15  2  0
 35 24  1  0
 36 19  2  0
 12 37  1  6
  1 38  1  6
 39  3  1  0
 40 25  1  0
 22 41  1  0
 42 29  1  0
 10 43  1  6
 44 39  1  0
 45 52  1  0
 46 42  1  0
 14 47  1  1
 17 48  1  1
 49 45  1  0
 22 50  1  1
 51 53  1  0
 52 54  2  0
 53 46  2  0
 54 46  1  0
 55 25  1  0
 23 56  1  1
 26 57  1  6
 35 58  1  1
 59 40  1  0
 60 40  1  0
 61 41  1  0
 62 56  1  0
  4  5  1  0
 16 22  1  0
 45 51  2  0
 44 30  1  0
 28 13  1  0
  2 63  1  1
M  END

> <chembl_id>
CHEMBL12589

> <chembl_pref_name>
None


$$$$

     RDKit          2D

 64 68  0  0  1  0  0  0  0  0999 V2000
    2.5167   -5.1042    0.0000 N   0  0  0  0  0  0  0  0  0  0  0  0
   -1.3458   -3.2667    0.0000 C   0  0  0  0  0  0  0  0  0  0  0  0
   -1.3375   -2.4417    0.0000 C   0  0  0  0  0  0  0  0  0  0  0  0
    2.2250   -5.8792    0.0000 C   0  0  0  0  0  0  0  0  0  0  0  0
   -2.7250   -2.8042    0.0000 C   0  0  0  0  0  0  0  0  0  0  0  0
   -2.1375   -2.2250    0.0000 N   0  0  0  0  0  0  0  0  0  0  0  0
    2.3042   -4.3125    0.0000 C   0  0  0  0  0  0  0  0  0  0  0  0
   -2.0583   -3.6750    0.0000 O   0  0  0  0  0  0  0  0  0  0  0  0
    0.7917   -3.6875    0.0000 C   0  0  0  0  0  0  0  0  0  0  0  0
    3.0542   -2.0375    0.0000 C   0  0  0  0  0  0  0  0  0  0  0  0
   -0.6250   -2.0292    0.0000 C   0  0  0  0  0  0  0  0  0  0  0  0
    0.0750   -4.9167    0.0000 C   0  0  0  0  0  0  0  0  0  0  0  0
    3.0417   -1.2125    0.0000 C   0  0  0  0  0  0  0  0  0  0  0  0
    3.7625   -0.7917    0.0000 C   0  0  0  0  0  0  0  0  0  0  0  0
    0.7917   -4.5042    0.0000 C   0  0  0  0  0  0  0  0  0  0  0  0
    1.5167   -2.4542    0.0000 C   0  0  0  0  0  0  0  0  0  0  0  0
    1.5125   -3.2792    0.0000 C   0  0  0  0  0  0  0  0  0  0  0  0
    1.5042   -4.1000    0.0000 O   0  0  0  0  0  0  0  0  0  0  0  0
   -0.6208   -1.2042    0.0000 C   0  0  0  0  0  0  0  0  0  0  0  0
   -0.6375   -4.5042    0.0000 O   0  0  0  0  0  0  0  0  0  0  0  0
    2.3417   -2.4542    0.0000 O   0  0  0  0  0  0  0  0  0  0  0  0
    0.8042   -2.0375    0.0000 C   0  0  0  0  0  0  0  0  0  0  0  0
    2.8625   -6.4000    0.0000 N   0  0  0  0  0  0  0  0  0  0  0  0
   -0.6333   -3.6792    0.0000 C   0  0  0  0  0  0  0  0  0  0  0  0
    3.7667   -2.4417    0.0000 O   0  0  0  0  0  0  0  0  0  0  0  0
    3.7542    0.0333    0.0000 N   0  0  0  0  0  0  0  0  0  0  0  0
    3.3417   -5.1542    0.0000 C   0  0  0  0  0  0  0  0  0  0  0  0
    0.0917   -0.7917    0.0000 C   0  0  0  0  0  0  0  0  0  0  0  0
    0.8042   -1.2125    0.0000 C   0  0  0  0  0  0  0  0  0  0  0  0
    4.4792   -1.2042    0.0000 C   0  0  0  0  0  0  0  0  0  0  0  0
   -2.3500   -1.4250    0.0000 C   0  0  0  0  0  0  0  0  0  0  0  0
    1.4250   -6.0917    0.0000 O   0  0  0  0  0  0  0  0  0  0  0  0
   -3.5500   -2.8000    0.0000 O   0  0  0  0  0  0  0  0  0  0  0  0
    2.8875   -3.7250    0.0000 O   0  0  0  0  0  0  0  0  0  0  0  0
    3.5542   -5.9500    0.0000 C   0  0  0  0  0  0  0  0  0  0  0  0
    0.0667   -5.7417    0.0000 O   0  0  0  0  0  0  0  0  0  0  0  0
    4.4792   -2.0292    0.0000 C   0  0  0  0  0  0  0  0  0  0  0  0
   -1.3333   -0.7917    0.0000 O   0  0  0  0  0  0  0  0  0  0  0  0
    2.4542   -0.6250    0.0000 O   0  0  0  0  0  0  0  0  0  0  0  0
   -1.7583   -3.9792    0.0000 C   0  0  0  0  0  0  0  0  0  0  0  0
    4.4667    0.4500    0.0000 C   0  0  0  0  0  0  0  0  0  0  0  0
    1.3875   -1.4500    0.0000 O   0  0  0  0  0  0  0  0  0  0  0  0
   -3.1458   -1.2042    0.0000 C   0  0  0  0  0  0  0  0  0  0  0  0
   -1.3458   -1.6167    0.0000 C   0  0  0  0  0  0  0  0  0  0  0  0
   -3.7833    1.1833    0.0000 C   0  0  0  0  0  0  0  0  0  0  0  0
   -3.3583   -0.4125    0.0000 C   0  0  0  0  0  0  0  0  0  0  0  0
    1.5042   -4.9292    0.0000 C   0  0  0  0  0  0  0  0  0  0  0  0
    2.2250   -3.6917    0.0000 C   0  0  0  0  0  0  0  0  0  0  0  0
   -3.9958    1.9708    0.0000 Cl  0  0  0  0  0  0  0  0  0  0  0  0
    1.6292   -2.0375    0.0000 C   0  0  0  0  0  0  0  0  0  0  0  0
    2.8542   -7.2250    0.0000 C   0  0  0  0  0  0  0  0  0  0  0  0
   -4.3708    0.5958    0.0000 C   0  0  0  0  0  0  0  0  0  0  0  0
   -2.9833    0.9625    0.0000 C   0  0  0  0  0  0  0  0  0  0  0  0
   -4.1583   -0.2042    0.0000 C   0  0  0  0  0  0  0  0  0  0  0  0
   -2.7708    0.1708    0.0000 C   0  0  0  0  0  0  0  0  0  0  0  0
    3.0375    0.4375    0.0000 C   0  0  0  0  0  0  0  0  0  0  0  0
   -1.3500   -4.0875    0.0000 C   0  0  0  0  0  0  0  0  0  0  0  0
    0.1000    0.0333    0.0000 C   0  0  0  0  0  0  0  0  0  0  0  0
    5.1917   -2.4417    0.0000 C   0  0  0  0  0  0  0  0  0  0  0  0
    5.1792    0.0458    0.0000 C   0  0  0  0  0  0  0  0  0  0  0  0
    4.4625    1.2750    0.0000 C   0  0  0  0  0  0  0  0  0  0  0  0
    1.3792   -0.6250    0.0000 C   0  0  0  0  0  0  0  0  0  0  0  0
   -1.3583   -4.9125    0.0000 C   0  0  0  0  0  0  0  0  0  0  0  0
   -1.4673   -1.4502    0.0000 H   0  0  0  0  0  0  0  0  0  0  0  0
  2 24  1  0
  3  2  1  0
  4  1  1  0
  5  8  1  0
  3  6  1  0
  7  1  1  0
  2  8  1  0
  9 18  1  1
 21 10  1  0
 11 19  1  0
 12 15  1  0
 13 10  1  0
 14 13  1  0
 15  9  1  0
 16 17  1  0
 17  9  1  0
 18  7  1  0
 19 28  1  0
 20 12  1  0
 16 21  1  6
 22 16  1  0
 23  4  1  0
 24 20  1  0
 25 10  1  0
 14 26  1  1
 27  1  1  0
 28 29  1  0
 29 22  1  0
 30 37  1  0
 31  6  1  0
 32  4  2  0
 33  5  2  0
 34  7  2  0
 35 27  1  0
 36 12  2  0
 37 25  1  0
 38 19  2  0
 13 39  1  6
  2 40  1  6
 41 26  1  0
 22 42  1  0
 43 31  1  0
 11 44  1  6
 45 53  2  0
 46 43  1  0
 15 47  1  1
 17 48  1  1
 49 45  1  0
 22 50  1  1
 51 23  1  0
 52 54  2  0
 53 55  1  0
 54 46  1  0
 55 46  2  0
 56 26  1  0
 24 57  1  1
 28 58  1  6
 37 59  1  1
 60 41  1  0
 61 41  1  0
 62 42  1  0
 63 57  1  0
 35 23  1  0
 11  3  1  0
 30 14  1  0
  5  6  1  0
 45 52  1  0
  3 64  1  1
M  END

> <chembl_id>
CHEMBL416337

> <chembl_pref_name>
None


$$$$

     RDKit          2D

 63 67  0  0  1  0  0  0  0  0999 V2000
   -0.2208   -4.0417    0.0000 C   0  0  0  0  0  0  0  0  0  0  0  0
   -0.2208   -3.2167    0.0000 C   0  0  0  0  0  0  0  0  0  0  0  0
   -1.6083   -3.5792    0.0000 C   0  0  0  0  0  0  0  0  0  0  0  0
   -1.0208   -3.0042    0.0000 N   0  0  0  0  0  0  0  0  0  0  0  0
   -0.9375   -4.4542    0.0000 O   0  0  0  0  0  0  0  0  0  0  0  0
    3.6375   -5.8875    0.0000 N   0  0  0  0  0  0  0  0  0  0  0  0
    3.4250   -5.0917    0.0000 C   0  0  0  0  0  0  0  0  0  0  0  0
    1.9167   -4.4667    0.0000 C   0  0  0  0  0  0  0  0  0  0  0  0
    4.1750   -2.8167    0.0000 C   0  0  0  0  0  0  0  0  0  0  0  0
    0.4917   -2.8042    0.0000 C   0  0  0  0  0  0  0  0  0  0  0  0
    1.1917   -5.7000    0.0000 C   0  0  0  0  0  0  0  0  0  0  0  0
    4.1667   -1.9917    0.0000 C   0  0  0  0  0  0  0  0  0  0  0  0
    4.8792   -1.5750    0.0000 C   0  0  0  0  0  0  0  0  0  0  0  0
    1.9125   -5.2917    0.0000 C   0  0  0  0  0  0  0  0  0  0  0  0
    2.6375   -3.2292    0.0000 C   0  0  0  0  0  0  0  0  0  0  0  0
    2.6292   -4.0542    0.0000 C   0  0  0  0  0  0  0  0  0  0  0  0
    2.6292   -4.8792    0.0000 O   0  0  0  0  0  0  0  0  0  0  0  0
    0.5000   -1.9792    0.0000 C   0  0  0  0  0  0  0  0  0  0  0  0
    0.4792   -5.2792    0.0000 O   0  0  0  0  0  0  0  0  0  0  0  0
    3.4625   -3.2292    0.0000 O   0  0  0  0  0  0  0  0  0  0  0  0
    1.9250   -2.8167    0.0000 C   0  0  0  0  0  0  0  0  0  0  0  0
    0.4875   -4.4542    0.0000 C   0  0  0  0  0  0  0  0  0  0  0  0
    4.8917   -3.2250    0.0000 O   0  0  0  0  0  0  0  0  0  0  0  0
    4.8792   -0.7500    0.0000 N   0  0  0  0  0  0  0  0  0  0  0  0
    3.3417   -6.6542    0.0000 C   0  0  0  0  0  0  0  0  0  0  0  0
    1.2167   -1.5750    0.0000 C   0  0  0  0  0  0  0  0  0  0  0  0
    1.9292   -1.9917    0.0000 C   0  0  0  0  0  0  0  0  0  0  0  0
    5.6000   -1.9875    0.0000 C   0  0  0  0  0  0  0  0  0  0  0  0
   -1.2333   -2.2042    0.0000 C   0  0  0  0  0  0  0  0  0  0  0  0
   -2.4333   -3.5792    0.0000 O   0  0  0  0  0  0  0  0  0  0  0  0
    4.0042   -4.5042    0.0000 O   0  0  0  0  0  0  0  0  0  0  0  0
    1.1917   -6.5250    0.0000 O   0  0  0  0  0  0  0  0  0  0  0  0
    5.6000   -2.8125    0.0000 C   0  0  0  0  0  0  0  0  0  0  0  0
    3.9792   -7.1792    0.0000 O   0  0  0  0  0  0  0  0  0  0  0  0
   -0.2083   -1.5667    0.0000 O   0  0  0  0  0  0  0  0  0  0  0  0
    3.5792   -1.4042    0.0000 O   0  0  0  0  0  0  0  0  0  0  0  0
   -0.6375   -4.7542    0.0000 C   0  0  0  0  0  0  0  0  0  0  0  0
    4.4667   -5.9292    0.0000 C   0  0  0  0  0  0  0  0  0  0  0  0
    5.5875   -0.3292    0.0000 C   0  0  0  0  0  0  0  0  0  0  0  0
    2.5042   -2.2292    0.0000 O   0  0  0  0  0  0  0  0  0  0  0  0
   -2.0250   -1.9875    0.0000 C   0  0  0  0  0  0  0  0  0  0  0  0
   -0.2208   -2.3917    0.0000 C   0  0  0  0  0  0  0  0  0  0  0  0
   -2.6583    0.4000    0.0000 C   0  0  0  0  0  0  0  0  0  0  0  0
   -2.2375   -1.1917    0.0000 C   0  0  0  0  0  0  0  0  0  0  0  0
    2.6250   -5.7042    0.0000 C   0  0  0  0  0  0  0  0  0  0  0  0
    4.6750   -6.7292    0.0000 C   0  0  0  0  0  0  0  0  0  0  0  0
    3.3417   -4.4750    0.0000 C   0  0  0  0  0  0  0  0  0  0  0  0
   -2.8708    1.1958    0.0000 Cl  0  0  0  0  0  0  0  0  0  0  0  0
    2.7500   -2.8167    0.0000 C   0  0  0  0  0  0  0  0  0  0  0  0
   -1.8625    0.1833    0.0000 C   0  0  0  0  0  0  0  0  0  0  0  0
   -3.2458   -0.1875    0.0000 C   0  0  0  0  0  0  0  0  0  0  0  0
   -1.6500   -0.6125    0.0000 C   0  0  0  0  0  0  0  0  0  0  0  0
   -3.0333   -0.9792    0.0000 C   0  0  0  0  0  0  0  0  0  0  0  0
    4.1542   -0.3417    0.0000 C   0  0  0  0  0  0  0  0  0  0  0  0
   -0.2333   -4.8667    0.0000 C   0  0  0  0  0  0  0  0  0  0  0  0
    1.2167   -0.7500    0.0000 C   0  0  0  0  0  0  0  0  0  0  0  0
    2.5417   -6.8667    0.0000 C   0  0  0  0  0  0  0  0  0  0  0  0
    6.3167   -3.2250    0.0000 C   0  0  0  0  0  0  0  0  0  0  0  0
    5.5792    0.4958    0.0000 C   0  0  0  0  0  0  0  0  0  0  0  0
    6.3042   -0.7375    0.0000 C   0  0  0  0  0  0  0  0  0  0  0  0
    2.5042   -1.4042    0.0000 C   0  0  0  0  0  0  0  0  0  0  0  0
   -0.2333   -5.6917    0.0000 C   0  0  0  0  0  0  0  0  0  0  0  0
   -0.3530   -2.2255    0.0000 H   0  0  0  0  0  0  0  0  0  0  0  0
  2  1  1  0
  3  5  1  0
  2  4  1  0
  1  5  1  0
  6  7  1  0
  7 17  1  0
  8 14  1  0
 20  9  1  0
 10  2  1  0
 11 19  1  0
 12  9  1  0
 13 12  1  0
 14 11  1  0
 15 16  1  0
 16  8  1  0
  8 17  1  1
 18 10  1  0
 19 22  1  0
 15 20  1  6
 21 27  1  0
 22  1  1  0
 23  9  1  0
 13 24  1  1
 25  6  1  0
 26 18  1  0
 27 26  1  0
 28 33  1  0
 29  4  1  0
 30  3  2  0
 31  7  2  0
 32 11  2  0
 33 23  1  0
 34 25  1  0
 35 18  2  0
 12 36  1  6
  1 37  1  6
 38  6  1  0
 39 24  1  0
 21 40  1  0
 41 29  1  0
 10 42  1  6
 43 51  1  0
 44 41  1  0
 14 45  1  1
 46 38  1  0
 16 47  1  1
 48 43  1  0
 21 49  1  1
 50 52  1  0
 51 53  2  0
 52 44  2  0
 53 44  1  0
 54 24  1  0
 22 55  1  1
 26 56  1  6
 57 25  1  0
 33 58  1  1
 59 39  1  0
 60 39  1  0
 61 40  1  0
 62 55  1  0
  3  4  1  0
 15 21  1  0
 43 50  2  0
 46 34  1  0
 28 13  1  0
  2 63  1  1
M  END

> <chembl_id>
CHEMBL275521

> <chembl_pref_name>
None


$$$$

     RDKit          2D

 63 67  0  0  1  0  0  0  0  0999 V2000
   -0.2208   -4.2667    0.0000 C   0  0  0  0  0  0  0  0  0  0  0  0
   -0.2208   -3.4417    0.0000 C   0  0  0  0  0  0  0  0  0  0  0  0
   -1.6083   -3.8042    0.0000 C   0  0  0  0  0  0  0  0  0  0  0  0
   -1.0208   -3.2292    0.0000 N   0  0  0  0  0  0  0  0  0  0  0  0
   -0.9375   -4.6792    0.0000 O   0  0  0  0  0  0  0  0  0  0  0  0
    1.9167   -4.6917    0.0000 C   0  0  0  0  0  0  0  0  0  0  0  0
    4.1750   -3.0417    0.0000 C   0  0  0  0  0  0  0  0  0  0  0  0
    0.4917   -3.0292    0.0000 C   0  0  0  0  0  0  0  0  0  0  0  0
    1.1917   -5.9250    0.0000 C   0  0  0  0  0  0  0  0  0  0  0  0
    4.1667   -2.2167    0.0000 C   0  0  0  0  0  0  0  0  0  0  0  0
    4.8792   -1.8000    0.0000 C   0  0  0  0  0  0  0  0  0  0  0  0
    1.9125   -5.5167    0.0000 C   0  0  0  0  0  0  0  0  0  0  0  0
    3.4250   -5.3167    0.0000 C   0  0  0  0  0  0  0  0  0  0  0  0
    2.6375   -3.4542    0.0000 C   0  0  0  0  0  0  0  0  0  0  0  0
    2.6292   -4.2792    0.0000 C   0  0  0  0  0  0  0  0  0  0  0  0
    0.5000   -2.2042    0.0000 C   0  0  0  0  0  0  0  0  0  0  0  0
    2.6292   -5.1042    0.0000 O   0  0  0  0  0  0  0  0  0  0  0  0
    0.4792   -5.5042    0.0000 O   0  0  0  0  0  0  0  0  0  0  0  0
    3.4625   -3.4542    0.0000 O   0  0  0  0  0  0  0  0  0  0  0  0
    1.9250   -3.0417    0.0000 C   0  0  0  0  0  0  0  0  0  0  0  0
    0.4875   -4.6792    0.0000 C   0  0  0  0  0  0  0  0  0  0  0  0
    4.8917   -3.4500    0.0000 O   0  0  0  0  0  0  0  0  0  0  0  0
    4.8792   -0.9750    0.0000 N   0  0  0  0  0  0  0  0  0  0  0  0
    3.6417   -6.1042    0.0000 N   0  0  0  0  0  0  0  0  0  0  0  0
    1.2167   -1.8000    0.0000 C   0  0  0  0  0  0  0  0  0  0  0  0
    1.9292   -2.2167    0.0000 C   0  0  0  0  0  0  0  0  0  0  0  0
    5.6000   -2.2125    0.0000 C   0  0  0  0  0  0  0  0  0  0  0  0
   -1.2333   -2.4292    0.0000 C   0  0  0  0  0  0  0  0  0  0  0  0
   -2.4333   -3.8042    0.0000 O   0  0  0  0  0  0  0  0  0  0  0  0
    1.1917   -6.7500    0.0000 O   0  0  0  0  0  0  0  0  0  0  0  0
    4.0042   -4.7292    0.0000 O   0  0  0  0  0  0  0  0  0  0  0  0
    5.6000   -3.0375    0.0000 C   0  0  0  0  0  0  0  0  0  0  0  0
   -0.2083   -1.7917    0.0000 O   0  0  0  0  0  0  0  0  0  0  0  0
    3.5792   -1.6292    0.0000 O   0  0  0  0  0  0  0  0  0  0  0  0
    4.3625   -7.5875    0.0000 O   0  0  0  0  0  0  0  0  0  0  0  0
   -0.6375   -4.9792    0.0000 C   0  0  0  0  0  0  0  0  0  0  0  0
    5.5875   -0.5542    0.0000 C   0  0  0  0  0  0  0  0  0  0  0  0
    2.5042   -2.4542    0.0000 O   0  0  0  0  0  0  0  0  0  0  0  0
   -2.0250   -2.2125    0.0000 C   0  0  0  0  0  0  0  0  0  0  0  0
   -0.2208   -2.6167    0.0000 C   0  0  0  0  0  0  0  0  0  0  0  0
   -2.6583    0.1750    0.0000 C   0  0  0  0  0  0  0  0  0  0  0  0
   -2.2375   -1.4167    0.0000 C   0  0  0  0  0  0  0  0  0  0  0  0
    2.6250   -5.9292    0.0000 C   0  0  0  0  0  0  0  0  0  0  0  0
    3.3417   -4.7000    0.0000 C   0  0  0  0  0  0  0  0  0  0  0  0
   -2.8708    0.9708    0.0000 Cl  0  0  0  0  0  0  0  0  0  0  0  0
    2.7500   -3.0417    0.0000 C   0  0  0  0  0  0  0  0  0  0  0  0
   -1.8625   -0.0417    0.0000 C   0  0  0  0  0  0  0  0  0  0  0  0
   -3.2458   -0.4125    0.0000 C   0  0  0  0  0  0  0  0  0  0  0  0
   -1.6500   -0.8375    0.0000 C   0  0  0  0  0  0  0  0  0  0  0  0
   -3.0333   -1.2042    0.0000 C   0  0  0  0  0  0  0  0  0  0  0  0
    3.1792   -6.7875    0.0000 C   0  0  0  0  0  0  0  0  0  0  0  0
    4.4667   -6.1542    0.0000 C   0  0  0  0  0  0  0  0  0  0  0  0
    4.1542   -0.5667    0.0000 C   0  0  0  0  0  0  0  0  0  0  0  0
   -0.2333   -5.0917    0.0000 C   0  0  0  0  0  0  0  0  0  0  0  0
    1.2167   -0.9750    0.0000 C   0  0  0  0  0  0  0  0  0  0  0  0
    3.5417   -7.5292    0.0000 C   0  0  0  0  0  0  0  0  0  0  0  0
    4.8250   -6.9042    0.0000 C   0  0  0  0  0  0  0  0  0  0  0  0
    6.3167   -3.4500    0.0000 C   0  0  0  0  0  0  0  0  0  0  0  0
    5.5792    0.2708    0.0000 C   0  0  0  0  0  0  0  0  0  0  0  0
    6.3042   -0.9625    0.0000 C   0  0  0  0  0  0  0  0  0  0  0  0
    2.5042   -1.6292    0.0000 C   0  0  0  0  0  0  0  0  0  0  0  0
   -0.2333   -5.9167    0.0000 C   0  0  0  0  0  0  0  0  0  0  0  0
   -0.3530   -2.4505    0.0000 H   0  0  0  0  0  0  0  0  0  0  0  0
  2  1  1  0
  3  5  1  0
  2  4  1  0
  1  5  1  0
  6 12  1  0
 19  7  1  0
  8  2  1  0
  9 18  1  0
 10  7  1  0
 11 10  1  0
 12  9  1  0
 13 17  1  0
 14 15  1  0
 15  6  1  0
 16  8  1  0
  6 17  1  1
 18 21  1  0
 14 19  1  6
 20 26  1  0
 21  1  1  0
 22  7  1  0
 11 23  1  1
 24 13  1  0
 25 16  1  0
 26 25  1  0
 27 32  1  0
 28  4  1  0
 29  3  2  0
 30  9  2  0
 31 13  2  0
 32 22  1  0
 33 16  2  0
 10 34  1  6
 35 57  1  0
  1 36  1  6
 37 23  1  0
 20 38  1  0
 39 28  1  0
  8 40  1  6
 41 48  1  0
 42 39  1  0
 12 43  1  1
 15 44  1  1
 45 41  1  0
 20 46  1  1
 47 49  1  0
 48 50  2  0
 49 42  2  0
 50 42  1  0
 51 24  1  0
 52 24  1  0
 53 23  1  0
 21 54  1  1
 25 55  1  6
 56 51  1  0
 57 52  1  0
 32 58  1  1
 59 37  1  0
 60 37  1  0
 61 38  1  0
 62 54  1  0
  3  4  1  0
 14 20  1  0
 41 47  2  0
 35 56  1  0
 27 11  1  0
  2 63  1  1
M  END

> <chembl_id>
CHEMBL275251

> <chembl_pref_name>
None


$$$$

     RDKit          2D

 64 68  0  0  1  0  0  0  0  0999 V2000
   -1.3458   -3.2667    0.0000 C   0  0  0  0  0  0  0  0  0  0  0  0
    2.5167   -5.1042    0.0000 N   0  0  0  0  0  0  0  0  0  0  0  0
    2.3042   -4.3125    0.0000 C   0  0  0  0  0  0  0  0  0  0  0  0
   -1.3375   -2.4417    0.0000 C   0  0  0  0  0  0  0  0  0  0  0  0
   -2.7250   -2.8042    0.0000 C   0  0  0  0  0  0  0  0  0  0  0  0
   -2.1375   -2.2250    0.0000 N   0  0  0  0  0  0  0  0  0  0  0  0
   -2.0583   -3.6750    0.0000 O   0  0  0  0  0  0  0  0  0  0  0  0
    0.7917   -3.6875    0.0000 C   0  0  0  0  0  0  0  0  0  0  0  0
    3.0542   -2.0375    0.0000 C   0  0  0  0  0  0  0  0  0  0  0  0
   -0.6250   -2.0292    0.0000 C   0  0  0  0  0  0  0  0  0  0  0  0
    0.0750   -4.9167    0.0000 C   0  0  0  0  0  0  0  0  0  0  0  0
    2.2250   -5.8792    0.0000 C   0  0  0  0  0  0  0  0  0  0  0  0
    3.0417   -1.2125    0.0000 C   0  0  0  0  0  0  0  0  0  0  0  0
    3.7625   -0.7917    0.0000 C   0  0  0  0  0  0  0  0  0  0  0  0
    0.7917   -4.5042    0.0000 C   0  0  0  0  0  0  0  0  0  0  0  0
    1.5167   -2.4542    0.0000 C   0  0  0  0  0  0  0  0  0  0  0  0
    1.5042   -4.1000    0.0000 O   0  0  0  0  0  0  0  0  0  0  0  0
    1.5125   -3.2792    0.0000 C   0  0  0  0  0  0  0  0  0  0  0  0
   -0.6208   -1.2042    0.0000 C   0  0  0  0  0  0  0  0  0  0  0  0
   -0.6375   -4.5042    0.0000 O   0  0  0  0  0  0  0  0  0  0  0  0
    2.3417   -2.4542    0.0000 O   0  0  0  0  0  0  0  0  0  0  0  0
    0.8042   -2.0375    0.0000 C   0  0  0  0  0  0  0  0  0  0  0  0
   -0.6333   -3.6792    0.0000 C   0  0  0  0  0  0  0  0  0  0  0  0
    3.7667   -2.4417    0.0000 O   0  0  0  0  0  0  0  0  0  0  0  0
    3.7542    0.0333    0.0000 N   0  0  0  0  0  0  0  0  0  0  0  0
    2.8625   -6.4000    0.0000 O   0  0  0  0  0  0  0  0  0  0  0  0
    0.0917   -0.7917    0.0000 C   0  0  0  0  0  0  0  0  0  0  0  0
    0.8042   -1.2125    0.0000 C   0  0  0  0  0  0  0  0  0  0  0  0
    4.4792   -1.2042    0.0000 C   0  0  0  0  0  0  0  0  0  0  0  0
   -2.3500   -1.4250    0.0000 C   0  0  0  0  0  0  0  0  0  0  0  0
    3.3417   -5.1542    0.0000 C   0  0  0  0  0  0  0  0  0  0  0  0
    2.8875   -3.7250    0.0000 O   0  0  0  0  0  0  0  0  0  0  0  0
   -3.5500   -2.8000    0.0000 O   0  0  0  0  0  0  0  0  0  0  0  0
    0.0667   -5.7417    0.0000 O   0  0  0  0  0  0  0  0  0  0  0  0
    1.4250   -6.0917    0.0000 O   0  0  0  0  0  0  0  0  0  0  0  0
    4.4792   -2.0292    0.0000 C   0  0  0  0  0  0  0  0  0  0  0  0
   -1.3333   -0.7917    0.0000 O   0  0  0  0  0  0  0  0  0  0  0  0
    3.5542   -5.9500    0.0000 C   0  0  0  0  0  0  0  0  0  0  0  0
    2.4542   -0.6250    0.0000 O   0  0  0  0  0  0  0  0  0  0  0  0
   -1.7583   -3.9792    0.0000 C   0  0  0  0  0  0  0  0  0  0  0  0
    4.4667    0.4500    0.0000 C   0  0  0  0  0  0  0  0  0  0  0  0
    1.3875   -1.4500    0.0000 O   0  0  0  0  0  0  0  0  0  0  0  0
   -3.1458   -1.2042    0.0000 C   0  0  0  0  0  0  0  0  0  0  0  0
   -1.3458   -1.6167    0.0000 C   0  0  0  0  0  0  0  0  0  0  0  0
   -3.7833    1.1833    0.0000 C   0  0  0  0  0  0  0  0  0  0  0  0
   -3.3583   -0.4125    0.0000 C   0  0  0  0  0  0  0  0  0  0  0  0
    1.5042   -4.9292    0.0000 C   0  0  0  0  0  0  0  0  0  0  0  0
    2.2250   -3.6917    0.0000 C   0  0  0  0  0  0  0  0  0  0  0  0
   -3.9958    1.9708    0.0000 Cl  0  0  0  0  0  0  0  0  0  0  0  0
    1.6292   -2.0375    0.0000 C   0  0  0  0  0  0  0  0  0  0  0  0
   -2.9833    0.9625    0.0000 C   0  0  0  0  0  0  0  0  0  0  0  0
   -4.3708    0.5958    0.0000 C   0  0  0  0  0  0  0  0  0  0  0  0
   -2.7708    0.1708    0.0000 C   0  0  0  0  0  0  0  0  0  0  0  0
   -4.1583   -0.2042    0.0000 C   0  0  0  0  0  0  0  0  0  0  0  0
    3.0375    0.4375    0.0000 C   0  0  0  0  0  0  0  0  0  0  0  0
   -1.3500   -4.0875    0.0000 C   0  0  0  0  0  0  0  0  0  0  0  0
    0.1000    0.0333    0.0000 C   0  0  0  0  0  0  0  0  0  0  0  0
    3.7542   -4.4375    0.0000 C   0  0  0  0  0  0  0  0  0  0  0  0
    5.1917   -2.4417    0.0000 C   0  0  0  0  0  0  0  0  0  0  0  0
    5.1792    0.0458    0.0000 C   0  0  0  0  0  0  0  0  0  0  0  0
    4.4625    1.2750    0.0000 C   0  0  0  0  0  0  0  0  0  0  0  0
    1.3792   -0.6250    0.0000 C   0  0  0  0  0  0  0  0  0  0  0  0
   -1.3583   -4.9125    0.0000 C   0  0  0  0  0  0  0  0  0  0  0  0
   -1.4673   -1.4502    0.0000 H   0  0  0  0  0  0  0  0  0  0  0  0
  2  3  1  0
  3 17  1  0
  4  1  1  0
  5  7  1  0
  4  6  1  0
  1  7  1  0
  8 15  1  0
 21  9  1  0
 10  4  1  0
 11 20  1  0
 12  2  1  0
 13  9  1  0
 14 13  1  0
 15 11  1  0
 16 18  1  0
  8 17  1  1
 18  8  1  0
 19 10  1  0
 20 23  1  0
 16 21  1  6
 22 28  1  0
 23  1  1  0
 24  9  1  0
 14 25  1  1
 26 12  1  0
 27 19  1  0
 28 27  1  0
 29 36  1  0
 30  6  1  0
 31  2  1  0
 32  3  2  0
 33  5  2  0
 34 11  2  0
 35 12  2  0
 36 24  1  0
 37 19  2  0
 38 31  1  0
 13 39  1  6
  1 40  1  6
 41 25  1  0
 22 42  1  0
 43 30  1  0
 10 44  1  6
 45 52  1  0
 46 43  1  0
 15 47  1  1
 18 48  1  1
 49 45  1  0
 22 50  1  1
 51 53  1  0
 52 54  2  0
 53 46  2  0
 54 46  1  0
 55 25  1  0
 23 56  1  1
 27 57  1  6
 31 58  1  6
 36 59  1  1
 60 41  1  0
 61 41  1  0
 62 42  1  0
 63 56  1  0
  5  6  1  0
 16 22  1  0
 45 51  2  0
 38 26  1  0
 29 14  1  0
  4 64  1  1
M  END

> <chembl_id>
CHEMBL429949

> <chembl_pref_name>
None


$$$$

     RDKit          2D

 68 73  0  0  1  0  0  0  0  0999 V2000
    1.8292   -9.4792    0.0000 C   0  0  0  0  0  0  0  0  0  0  0  0
    1.8375   -8.6542    0.0000 C   0  0  0  0  0  0  0  0  0  0  0  0
    0.4042   -8.6542    0.0000 C   0  0  0  0  0  0  0  0  0  0  0  0
    1.1167   -8.2417    0.0000 N   0  0  0  0  0  0  0  0  0  0  0  0
    1.0292   -9.2667    0.0000 O   0  0  0  0  0  0  0  0  0  0  0  0
    6.2792   -8.2250    0.0000 C   0  0  0  0  0  0  0  0  0  0  0  0
    2.5542   -8.2417    0.0000 C   0  0  0  0  0  0  0  0  0  0  0  0
    3.9667   -9.8917    0.0000 C   0  0  0  0  0  0  0  0  0  0  0  0
    3.2542  -11.1292    0.0000 C   0  0  0  0  0  0  0  0  0  0  0  0
    6.2792   -7.4000    0.0000 C   0  0  0  0  0  0  0  0  0  0  0  0
    6.9917   -6.9917    0.0000 C   0  0  0  0  0  0  0  0  0  0  0  0
    3.9667  -10.7167    0.0000 C   0  0  0  0  0  0  0  0  0  0  0  0
    4.6917   -8.6542    0.0000 C   0  0  0  0  0  0  0  0  0  0  0  0
    4.6875   -9.4792    0.0000 C   0  0  0  0  0  0  0  0  0  0  0  0
    2.5542   -7.4167    0.0000 C   0  0  0  0  0  0  0  0  0  0  0  0
    2.5417  -10.7167    0.0000 O   0  0  0  0  0  0  0  0  0  0  0  0
    5.4875   -8.4417    0.0000 O   0  0  0  0  0  0  0  0  0  0  0  0
    6.1000  -11.9542    0.0000 C   0  0  0  0  0  0  0  0  0  0  0  0
    3.9750   -8.2417    0.0000 C   0  0  0  0  0  0  0  0  0  0  0  0
    2.5417   -9.8917    0.0000 C   0  0  0  0  0  0  0  0  0  0  0  0
    5.3917  -10.7167    0.0000 C   0  0  0  0  0  0  0  0  0  0  0  0
    5.3917  -11.5417    0.0000 C   0  0  0  0  0  0  0  0  0  0  0  0
    6.9917   -6.1667    0.0000 N   0  0  0  0  0  0  0  0  0  0  0  0
    6.9917   -8.6375    0.0000 O   0  0  0  0  0  0  0  0  0  0  0  0
    6.1042  -10.3042    0.0000 O   0  0  0  0  0  0  0  0  0  0  0  0
    6.8167  -11.5417    0.0000 C   0  0  0  0  0  0  0  0  0  0  0  0
    4.6792  -10.3042    0.0000 O   0  0  0  0  0  0  0  0  0  0  0  0
    6.8167  -10.7167    0.0000 C   0  0  0  0  0  0  0  0  0  0  0  0
    3.2625   -7.0042    0.0000 C   0  0  0  0  0  0  0  0  0  0  0  0
    3.9750   -7.4167    0.0000 C   0  0  0  0  0  0  0  0  0  0  0  0
    7.7042   -7.4042    0.0000 C   0  0  0  0  0  0  0  0  0  0  0  0
    1.1167   -7.4167    0.0000 C   0  0  0  0  0  0  0  0  0  0  0  0
   -0.3958   -8.4375    0.0000 O   0  0  0  0  0  0  0  0  0  0  0  0
    3.2500  -11.9542    0.0000 O   0  0  0  0  0  0  0  0  0  0  0  0
    7.7042   -8.2250    0.0000 C   0  0  0  0  0  0  0  0  0  0  0  0
    1.8375   -7.0042    0.0000 O   0  0  0  0  0  0  0  0  0  0  0  0
    7.7000   -5.7500    0.0000 C   0  0  0  0  0  0  0  0  0  0  0  0
    5.5625   -6.9875    0.0000 O   0  0  0  0  0  0  0  0  0  0  0  0
    1.2417  -10.0667    0.0000 C   0  0  0  0  0  0  0  0  0  0  0  0
    6.6792  -12.5375    0.0000 O   0  0  0  0  0  0  0  0  0  0  0  0
    4.3792   -7.5292    0.0000 O   0  0  0  0  0  0  0  0  0  0  0  0
    7.5292  -11.9542    0.0000 O   0  0  0  0  0  0  0  0  0  0  0  0
    0.4042   -7.0042    0.0000 C   0  0  0  0  0  0  0  0  0  0  0  0
    1.8375   -7.8292    0.0000 C   0  0  0  0  0  0  0  0  0  0  0  0
    0.4042   -4.5292    0.0000 C   0  0  0  0  0  0  0  0  0  0  0  0
    0.4042   -6.1792    0.0000 C   0  0  0  0  0  0  0  0  0  0  0  0
    4.6792  -11.1292    0.0000 C   0  0  0  0  0  0  0  0  0  0  0  0
    5.4000   -9.8917    0.0000 C   0  0  0  0  0  0  0  0  0  0  0  0
    0.4042   -3.7042    0.0000 Cl  0  0  0  0  0  0  0  0  0  0  0  0
    5.5125  -12.5375    0.0000 C   0  0  0  0  0  0  0  0  0  0  0  0
    4.7667   -8.0292    0.0000 C   0  0  0  0  0  0  0  0  0  0  0  0
    1.1250   -4.9500    0.0000 C   0  0  0  0  0  0  0  0  0  0  0  0
   -0.3083   -4.9500    0.0000 C   0  0  0  0  0  0  0  0  0  0  0  0
    1.1167   -5.7750    0.0000 C   0  0  0  0  0  0  0  0  0  0  0  0
   -0.3083   -5.7750    0.0000 C   0  0  0  0  0  0  0  0  0  0  0  0
    6.2750   -5.7542    0.0000 C   0  0  0  0  0  0  0  0  0  0  0  0
    1.8292  -10.3042    0.0000 C   0  0  0  0  0  0  0  0  0  0  0  0
    7.5292  -10.3042    0.0000 C   0  0  0  0  0  0  0  0  0  0  0  0
    3.2625   -6.1792    0.0000 C   0  0  0  0  0  0  0  0  0  0  0  0
    8.4167   -8.6375    0.0000 C   0  0  0  0  0  0  0  0  0  0  0  0
    7.7792   -4.9292    0.0000 C   0  0  0  0  0  0  0  0  0  0  0  0
    8.4500   -6.0792    0.0000 C   0  0  0  0  0  0  0  0  0  0  0  0
    6.4667  -13.3292    0.0000 C   0  0  0  0  0  0  0  0  0  0  0  0
    4.3792   -6.7042    0.0000 C   0  0  0  0  0  0  0  0  0  0  0  0
    1.8250  -11.1292    0.0000 C   0  0  0  0  0  0  0  0  0  0  0  0
    9.0000   -5.4667    0.0000 C   0  0  0  0  0  0  0  0  0  0  0  0
    8.5792   -4.7542    0.0000 C   0  0  0  0  0  0  0  0  0  0  0  0
    1.8363   -7.6542    0.0000 H   0  0  0  0  0  0  0  0  0  0  0  0
  2  1  1  0
  3  5  1  0
  2  4  1  0
  1  5  1  0
 17  6  1  0
  7  2  1  0
  8 12  1  0
  9 16  1  0
 10  6  1  0
 11 10  1  0
 12  9  1  0
 13 14  1  0
 14  8  1  0
 15  7  1  0
 16 20  1  0
 13 17  1  6
 18 22  1  0
 19 30  1  0
 20  1  1  0
 21 27  1  0
 22 21  1  0
 11 23  1  1
 24  6  1  0
 25 21  1  0
 26 28  1  0
  8 27  1  1
 28 25  1  0
 29 15  1  0
 30 29  1  0
 31 35  1  0
 32  4  1  0
 33  3  2  0
 34  9  2  0
 35 24  1  0
 36 15  2  0
 37 23  1  0
 10 38  1  6
  1 39  1  6
 18 40  1  0
 19 41  1  0
 26 42  1  6
 43 32  1  0
  7 44  1  6
 45 53  1  0
 46 43  1  0
 12 47  1  1
 14 48  1  1
 49 45  1  0
 18 50  1  1
 19 51  1  1
 52 54  1  0
 53 55  2  0
 54 46  2  0
 55 46  1  0
 56 23  1  0
 20 57  1  1
 28 58  1  1
 29 59  1  6
 35 60  1  1
 61 37  1  0
 62 37  1  0
 63 40  1  0
 64 41  1  0
 65 57  1  0
 66 62  1  0
 67 61  1  0
  3  4  1  0
 13 19  1  0
 45 52  2  0
 26 18  1  0
 11 31  1  0
 67 66  1  0
  2 68  1  1
M  END

> <chembl_id>
CHEMBL442482

> <chembl_pref_name>
None


$$$$

     RDKit          2D

 69 75  0  0  1  0  0  0  0  0999 V2000
    3.9042   -9.6917    0.0000 C   0  0  0  0  0  0  0  0  0  0  0  0
    8.1792  -10.5167    0.0000 N   0  0  0  0  0  0  0  0  0  0  0  0
    7.4667  -10.9292    0.0000 C   0  0  0  0  0  0  0  0  0  0  0  0
    3.9042   -8.8667    0.0000 C   0  0  0  0  0  0  0  0  0  0  0  0
    2.4750   -8.8667    0.0000 C   0  0  0  0  0  0  0  0  0  0  0  0
    3.1917   -8.4542    0.0000 N   0  0  0  0  0  0  0  0  0  0  0  0
    3.1042   -9.4792    0.0000 O   0  0  0  0  0  0  0  0  0  0  0  0
    6.0417  -10.1042    0.0000 C   0  0  0  0  0  0  0  0  0  0  0  0
    8.3542   -8.4375    0.0000 C   0  0  0  0  0  0  0  0  0  0  0  0
    4.6250   -8.4542    0.0000 C   0  0  0  0  0  0  0  0  0  0  0  0
    5.3250  -11.3417    0.0000 C   0  0  0  0  0  0  0  0  0  0  0  0
    8.9292  -10.8500    0.0000 C   0  0  0  0  0  0  0  0  0  0  0  0
    6.0375  -10.9292    0.0000 C   0  0  0  0  0  0  0  0  0  0  0  0
    8.3500   -7.6125    0.0000 C   0  0  0  0  0  0  0  0  0  0  0  0
    6.7625   -8.8667    0.0000 C   0  0  0  0  0  0  0  0  0  0  0  0
    6.7542  -10.5167    0.0000 O   0  0  0  0  0  0  0  0  0  0  0  0
    6.7542   -9.6917    0.0000 C   0  0  0  0  0  0  0  0  0  0  0  0
    9.0667   -7.2042    0.0000 C   0  0  0  0  0  0  0  0  0  0  0  0
    4.6250   -7.6292    0.0000 C   0  0  0  0  0  0  0  0  0  0  0  0
    4.6125  -10.9292    0.0000 O   0  0  0  0  0  0  0  0  0  0  0  0
    9.0625   -6.3792    0.0000 N   0  0  0  0  0  0  0  0  0  0  0  0
    7.5542   -8.6542    0.0000 O   0  0  0  0  0  0  0  0  0  0  0  0
    6.0417   -8.4542    0.0000 C   0  0  0  0  0  0  0  0  0  0  0  0
    4.6167  -10.1042    0.0000 C   0  0  0  0  0  0  0  0  0  0  0  0
    9.0667   -8.8500    0.0000 O   0  0  0  0  0  0  0  0  0  0  0  0
    9.4792  -10.2375    0.0000 O   0  0  0  0  0  0  0  0  0  0  0  0
    5.3292   -7.2167    0.0000 C   0  0  0  0  0  0  0  0  0  0  0  0
    6.0417   -7.6292    0.0000 C   0  0  0  0  0  0  0  0  0  0  0  0
    3.1917   -7.6292    0.0000 C   0  0  0  0  0  0  0  0  0  0  0  0
    9.7792   -7.6167    0.0000 C   0  0  0  0  0  0  0  0  0  0  0  0
    8.2667   -9.6917    0.0000 C   0  0  0  0  0  0  0  0  0  0  0  0
    9.7667   -5.9625    0.0000 C   0  0  0  0  0  0  0  0  0  0  0  0
    8.3417   -5.9667    0.0000 C   0  0  0  0  0  0  0  0  0  0  0  0
    7.4625  -11.7542    0.0000 O   0  0  0  0  0  0  0  0  0  0  0  0
   10.4875   -6.3750    0.0000 C   0  0  0  0  0  0  0  0  0  0  0  0
    8.3375   -5.1417    0.0000 C   0  0  0  0  0  0  0  0  0  0  0  0
    1.7625   -5.1625    0.0000 C   0  0  0  0  0  0  0  0  0  0  0  0
    1.6750   -8.6500    0.0000 O   0  0  0  0  0  0  0  0  0  0  0  0
   11.3125   -6.3750    0.0000 C   0  0  0  0  0  0  0  0  0  0  0  0
   10.8917   -7.0875    0.0000 C   0  0  0  0  0  0  0  0  0  0  0  0
    8.7417   -4.4292    0.0000 C   0  0  0  0  0  0  0  0  0  0  0  0
    7.9167   -4.4292    0.0000 C   0  0  0  0  0  0  0  0  0  0  0  0
    5.3167  -12.1667    0.0000 O   0  0  0  0  0  0  0  0  0  0  0  0
    9.1417  -11.6417    0.0000 O   0  0  0  0  0  0  0  0  0  0  0  0
    9.7750   -8.4375    0.0000 C   0  0  0  0  0  0  0  0  0  0  0  0
    3.9042   -7.2167    0.0000 O   0  0  0  0  0  0  0  0  0  0  0  0
    2.4792   -4.7417    0.0000 C   0  0  0  0  0  0  0  0  0  0  0  0
    9.0667   -9.5167    0.0000 C   0  0  0  0  0  0  0  0  0  0  0  0
    1.7667   -5.9875    0.0000 C   0  0  0  0  0  0  0  0  0  0  0  0
    7.6292   -7.2000    0.0000 O   0  0  0  0  0  0  0  0  0  0  0  0
    3.3167  -10.2792    0.0000 C   0  0  0  0  0  0  0  0  0  0  0  0
    3.1917   -5.1625    0.0000 C   0  0  0  0  0  0  0  0  0  0  0  0
    6.4542   -7.7417    0.0000 O   0  0  0  0  0  0  0  0  0  0  0  0
    2.4792   -6.3917    0.0000 C   0  0  0  0  0  0  0  0  0  0  0  0
    2.4750   -7.2167    0.0000 C   0  0  0  0  0  0  0  0  0  0  0  0
    1.0417   -4.7500    0.0000 Cl  0  0  0  0  0  0  0  0  0  0  0  0
    3.9042   -8.0417    0.0000 C   0  0  0  0  0  0  0  0  0  0  0  0
    2.4750   -3.9167    0.0000 Cl  0  0  0  0  0  0  0  0  0  0  0  0
    6.7500  -11.3417    0.0000 C   0  0  0  0  0  0  0  0  0  0  0  0
    3.1917   -5.9875    0.0000 C   0  0  0  0  0  0  0  0  0  0  0  0
    7.4667  -10.1042    0.0000 C   0  0  0  0  0  0  0  0  0  0  0  0
    6.8417   -8.2417    0.0000 C   0  0  0  0  0  0  0  0  0  0  0  0
    3.9000  -10.5167    0.0000 C   0  0  0  0  0  0  0  0  0  0  0  0
    5.3292   -6.3917    0.0000 C   0  0  0  0  0  0  0  0  0  0  0  0
    7.6792   -9.1042    0.0000 C   0  0  0  0  0  0  0  0  0  0  0  0
   10.4875   -8.8500    0.0000 C   0  0  0  0  0  0  0  0  0  0  0  0
    6.4500   -6.9167    0.0000 C   0  0  0  0  0  0  0  0  0  0  0  0
    3.8917  -11.3417    0.0000 C   0  0  0  0  0  0  0  0  0  0  0  0
    3.9067   -7.8667    0.0000 H   0  0  0  0  0  0  0  0  0  0  0  0
  2  3  1  0
  3 16  1  0
  4  1  1  0
  5  7  1  0
  4  6  1  0
  1  7  1  0
  8 13  1  0
 22  9  1  0
 10  4  1  0
 11 20  1  0
 12  2  1  0
 13 11  1  0
 14  9  1  0
 15 17  1  0
  8 16  1  1
 17  8  1  0
 18 14  1  0
 19 10  1  0
 20 24  1  0
 18 21  1  1
 15 22  1  6
 23 28  1  0
 24  1  1  0
 25  9  1  0
 26 12  1  0
 27 19  1  0
 28 27  1  0
 29  6  1  0
 30 45  1  0
 31  2  1  0
 32 21  1  0
 33 21  1  0
 34  3  2  0
 35 32  1  0
 36 33  1  0
 37 49  2  0
 38  5  2  0
 39 35  1  0
 40 35  1  0
 41 36  1  0
 42 36  1  0
 43 11  2  0
 44 12  2  0
 45 25  1  0
 46 19  2  0
 47 52  2  0
 48 31  1  0
 49 54  1  0
 14 50  1  6
  1 51  1  6
 52 60  1  0
 23 53  1  0
 54 55  1  0
 55 29  1  0
 56 37  1  0
 10 57  1  6
 58 47  1  0
 13 59  1  1
 60 54  2  0
 17 61  1  1
 23 62  1  1
 24 63  1  1
 27 64  1  6
 31 65  1  1
 45 66  1  1
 67 53  1  0
 68 63  1  0
  5  6  1  0
 15 23  1  0
 47 37  1  0
 48 26  1  0
 30 18  1  0
 41 42  1  0
 40 39  1  0
  4 69  1  1
M  END

> <chembl_id>
CHEMBL408925

> <chembl_pref_name>
None


$$$$

     RDKit          2D

 51 53  0  0  1  0  0  0  0  0999 V2000
    3.6326    4.2310    0.0000 C   0  0  0  0  0  0  0  0  0  0  0  0
    3.8131    3.0446    0.0000 C   0  0  0  0  0  0  0  0  0  0  0  0
    2.6351    2.1015    0.0000 C   0  0  0  0  0  0  0  0  0  0  0  0
    1.4624    3.0367    0.0000 O   0  0  0  0  0  0  0  0  0  0  0  0
    0.0000    3.3705    0.0000 C   0  0  0  0  0  0  0  0  0  0  0  0
    0.0000    4.5705    0.0000 O   0  0  0  0  0  0  0  0  0  0  0  0
   -1.4624    3.0367    0.0000 C   0  0  0  0  0  0  0  0  0  0  0  0
   -1.9831    4.1178    0.0000 C   0  0  0  0  0  0  0  0  0  0  0  0
   -2.6352    2.1014    0.0000 C   0  0  0  0  0  0  0  0  0  0  0  0
   -3.8131    3.0446    0.0000 O   0  0  0  0  0  0  0  0  0  0  0  0
   -3.5874    4.5284    0.0000 C   0  0  0  0  0  0  0  0  0  0  0  0
   -4.7569    5.4677    0.0000 C   0  0  0  0  0  0  0  0  0  0  0  0
   -4.5283    6.9501    0.0000 C   0  0  0  0  0  0  0  0  0  0  0  0
   -4.3165    8.1313    0.0000 C   0  0  0  0  0  0  0  0  0  0  0  0
   -5.8946    6.3801    0.0000 O   0  0  0  0  0  0  0  0  0  0  0  0
   -6.0780    5.1942    0.0000 C   0  0  0  0  0  0  0  0  0  0  0  0
   -3.1302    7.4934    0.0000 C   0  0  0  0  0  0  0  0  0  0  0  0
   -2.9473    8.6794    0.0000 C   0  0  0  0  0  0  0  0  0  0  0  0
   -1.9606    6.5542    0.0000 C   0  0  0  0  0  0  0  0  0  0  0  0
   -0.8421    6.9889    0.0000 C   0  0  0  0  0  0  0  0  0  0  0  0
   -2.1892    5.0717    0.0000 O   0  0  0  0  0  0  0  0  0  0  0  0
   -3.2860    0.7500    0.0000 C   0  0  0  0  0  0  0  0  0  0  0  0
   -4.4559    1.0170    0.0000 C   0  0  0  0  0  0  0  0  0  0  0  0
   -3.2860   -0.7500    0.0000 C   0  0  0  0  0  0  0  0  0  0  0  0
   -4.7578   -1.0829    0.0000 O   0  0  0  0  0  0  0  0  0  0  0  0
   -5.7771    0.0187    0.0000 C   0  0  0  0  0  0  0  0  0  0  0  0
   -5.3302    1.4506    0.0000 O   0  0  0  0  0  0  0  0  0  0  0  0
   -6.3467    2.5536    0.0000 C   0  0  0  0  0  0  0  0  0  0  0  0
   -5.9891    3.6991    0.0000 C   0  0  0  0  0  0  0  0  0  0  0  0
   -7.8102    2.2248    0.0000 C   0  0  0  0  0  0  0  0  0  0  0  0
   -8.2572    0.7929    0.0000 C   0  0  0  0  0  0  0  0  0  0  0  0
   -7.2407   -0.3101    0.0000 C   0  0  0  0  0  0  0  0  0  0  0  0
   -7.5983   -1.4556    0.0000 O   0  0  0  0  0  0  0  0  0  0  0  0
   -9.7209    0.4609    0.0000 N   0  0  0  0  0  0  0  0  0  0  0  0
  -10.0768   -0.6851    0.0000 C   0  0  0  0  0  0  0  0  0  0  0  0
  -10.5356    1.3419    0.0000 C   0  0  0  0  0  0  0  0  0  0  0  0
   -2.6351   -2.1015    0.0000 C   0  0  0  0  0  0  0  0  0  0  0  0
   -2.3956   -3.2773    0.0000 C   0  0  0  0  0  0  0  0  0  0  0  0
   -3.7282   -1.6063    0.0000 O   0  0  0  0  0  0  0  0  0  0  0  0
   -1.4624   -3.0367    0.0000 C   0  0  0  0  0  0  0  0  0  0  0  0
    0.0000   -3.3705    0.0000 C   0  0  0  0  0  0  0  0  0  0  0  0
    0.0000   -4.5705    0.0000 C   0  0  0  0  0  0  0  0  0  0  0  0
    1.4624   -3.0367    0.0000 C   0  0  0  0  0  0  0  0  0  0  0  0
    1.9831   -4.1178    0.0000 O   0  0  0  0  0  0  0  0  0  0  0  0
    2.6351   -2.1015    0.0000 C   0  0  0  0  0  0  0  0  0  0  0  0
    3.5733   -2.8496    0.0000 C   0  0  0  0  0  0  0  0  0  0  0  0
    3.2860   -0.7500    0.0000 C   0  0  0  0  0  0  0  0  0  0  0  0
    4.4559   -1.0170    0.0000 O   0  0  0  0  0  0  0  0  0  0  0  0
    3.2860    0.7500    0.0000 C   0  0  0  0  0  0  0  0  0  0  0  0
    3.5803    1.9133    0.0000 C   0  0  0  0  0  0  0  0  0  0  0  0
    4.0559   -0.1704    0.0000 O   0  0  0  0  0  0  0  0  0  0  0  0
  1  2  1  0
  3  2  1  6
  3  4  1  0
  4  5  1  0
  5  6  2  0
  5  7  1  0
  7  8  1  1
  7  9  1  0
  9 10  1  6
 11 10  1  1
 11 12  1  0
 12 13  1  0
 13 14  1  6
 13 15  1  0
 15 16  1  0
 13 17  1  0
 17 18  1  1
 17 19  1  0
 19 20  1  6
 19 21  1  0
 21 11  1  0
  9 22  1  0
 22 23  1  1
 22 24  1  0
 24 25  1  6
 26 25  1  1
 26 27  1  0
 27 28  1  0
 28 29  1  1
 28 30  1  0
 30 31  1  0
 31 32  1  0
 32 26  1  0
 32 33  1  6
 31 34  1  1
 34 35  1  0
 34 36  1  0
 24 37  1  0
 37 38  1  6
 37 39  1  0
 37 40  1  0
 40 41  1  0
 41 42  1  6
 41 43  1  0
 43 44  2  0
 43 45  1  0
 45 46  1  1
 45 47  1  0
 47 48  1  6
 47 49  1  0
 49  3  1  0
 49 50  1  6
 49 51  1  0
M  END

> <chembl_id>
CHEMBL1237043

> <chembl_pref_name>
None


$$$$

     RDKit          2D

 52 54  0  0  0  0  0  0  0  0999 V2000
    3.8434   -1.6801    0.0000 C   0  0  0  0  0  0  0  0  0  0  0  0
    1.6968   -2.8914    0.0000 C   0  0  0  0  0  0  0  0  0  0  0  0
    0.2621   -2.8914    0.0000 C   0  0  0  0  0  0  0  0  0  0  0  0
   -0.4520   -0.8374    0.0000 C   0  0  0  0  0  0  0  0  0  0  0  0
    0.9805   -3.3023    0.0000 C   0  0  0  0  0  0  0  0  0  0  0  0
    3.8708   -0.8543    0.0000 C   0  0  0  0  0  0  0  0  0  0  0  0
    2.4046   -1.6632    0.0000 C   0  0  0  0  0  0  0  0  0  0  0  0
    1.6862   -2.0656    0.0000 C   0  0  0  0  0  0  0  0  0  0  0  0
    0.2621    0.3992    0.0000 C   0  0  0  0  0  0  0  0  0  0  0  0
    0.2621   -2.0656    0.0000 O   0  0  0  0  0  0  0  0  0  0  0  0
    0.2621   -0.4266    0.0000 C   0  0  0  0  0  0  0  0  0  0  0  0
    0.9721    0.8079    0.0000 C   0  0  0  0  0  0  0  0  0  0  0  0
    3.1187   -2.0656    0.0000 O   0  0  0  0  0  0  0  0  0  0  0  0
    3.1714   -5.3500    0.0000 C   0  0  0  0  0  0  0  0  0  0  0  0
    4.5955   -0.4687    0.0000 C   0  0  0  0  0  0  0  0  0  0  0  0
    2.4046   -0.8374    0.0000 C   0  0  0  0  0  0  0  0  0  0  0  0
    2.4215   -4.1281    0.0000 C   0  0  0  0  0  0  0  0  0  0  0  0
    3.1462   -4.5242    0.0000 C   0  0  0  0  0  0  0  0  0  0  0  0
    4.5450   -2.1246    0.0000 O   0  0  0  0  0  0  0  0  0  0  0  0
    1.7114   -4.5578    0.0000 O   0  0  0  0  0  0  0  0  0  0  0  0
   -0.4520   -1.6632    0.0000 C   0  0  0  0  0  0  0  0  0  0  0  0
    2.4699   -5.7755    0.0000 C   0  0  0  0  0  0  0  0  0  0  0  0
    2.3962   -3.3023    0.0000 O   0  0  0  0  0  0  0  0  0  0  0  0
    1.7452   -5.3836    0.0000 C   0  0  0  0  0  0  0  0  0  0  0  0
    1.6862    0.3992    0.0000 C   0  0  0  0  0  0  0  0  0  0  0  0
    1.6862   -0.4266    0.0000 C   0  0  0  0  0  0  0  0  0  0  0  0
    5.2950   -0.9049    0.0000 C   0  0  0  0  0  0  0  0  0  0  0  0
    4.6293    0.3571    0.0000 N   0  0  0  0  0  0  0  0  0  0  0  0
   -0.4436   -3.3023    0.0000 O   0  0  0  0  0  0  0  0  0  0  0  0
    5.2697   -1.7265    0.0000 C   0  0  0  0  0  0  0  0  0  0  0  0
    0.9721    1.6337    0.0000 O   0  0  0  0  0  0  0  0  0  0  0  0
    3.1861   -6.1758    0.0000 O   0  0  0  0  0  0  0  0  0  0  0  0
   -1.1722   -1.2398    0.0000 C   0  0  0  0  0  0  0  0  0  0  0  0
    0.9867   -4.1281    0.0000 C   0  0  0  0  0  0  0  0  0  0  0  0
    0.9721   -1.6548    0.0000 C   0  0  0  0  0  0  0  0  0  0  0  0
   -0.4520    0.8079    0.0000 C   0  0  0  0  0  0  0  0  0  0  0  0
    3.8708   -4.9223    0.0000 C   0  0  0  0  0  0  0  0  0  0  0  0
    3.1187   -1.2483    0.0000 C   0  0  0  0  0  0  0  0  0  0  0  0
   -1.1620   -2.0741    0.0000 C   0  0  0  0  0  0  0  0  0  0  0  0
    1.0373   -5.8197    0.0000 C   0  0  0  0  0  0  0  0  0  0  0  0
    2.4046    0.8079    0.0000 C   0  0  0  0  0  0  0  0  0  0  0  0
    3.9299    0.7931    0.0000 C   0  0  0  0  0  0  0  0  0  0  0  0
    5.9691   -2.1667    0.0000 C   0  0  0  0  0  0  0  0  0  0  0  0
    3.9108   -6.5697    0.0000 C   0  0  0  0  0  0  0  0  0  0  0  0
   -1.1620   -2.8914    0.0000 C   0  0  0  0  0  0  0  0  0  0  0  0
    3.1355   -3.7109    0.0000 H   0  0  0  0  0  0  0  0  0  0  0  0
    3.8350   -2.5017    0.0000 H   0  0  0  0  0  0  0  0  0  0  0  0
   -0.9639   -0.1907    0.0000 O   0  0  0  0  0  0  0  0  0  0  0  0
    3.1714   -0.4182    0.0000 O   0  0  0  0  0  0  0  0  0  0  0  0
    2.6237   -0.1549    0.0000 O   0  0  0  0  0  0  0  0  0  0  0  0
    0.9721   -0.8374    0.0000 O   0  0  0  0  0  0  0  0  0  0  0  0
    2.4867   -6.6013    0.0000 O   0  0  0  0  0  0  0  0  0  0  0  0
  6  1  1  0
  7 13  1  6
  8  7  1  0
  9 12  1  0
 10  3  1  0
 11  9  1  0
 12 25  1  0
 13  1  1  0
 14 18  1  0
 15  6  1  0
 16  7  1  0
 17 23  1  0
 18 17  1  0
 19  1  1  0
 20 17  1  0
 21 10  1  0
 22 24  1  0
  2 23  1  6
 24 20  1  0
 25 26  1  0
 26 16  1  0
 27 30  1  0
 15 28  1  1
 29  3  2  0
 30 19  1  0
 31 12  2  0
 14 32  1  1
 33  4  1  0
  5 34  1  1
  8 35  1  6
  9 36  1  1
 37 14  1  0
 38 16  1  0
 21 39  1  6
 24 40  1  6
 25 41  1  6
 42 28  1  0
 30 43  1  1
 44 32  1  0
 45 39  1  0
 17 46  1  6
  1 47  1  6
 27 15  1  0
  4 21  1  0
 22 14  1  0
  2  8  1  0
  3  5  1  0
  4 11  1  0
  5  2  1  0
  4 48  1  1
 16 50  1  1
 11 51  1  1
  6 49  1  6
 22 52  1  1
M  END

> <chembl_id>
CHEMBL2063468

> <chembl_pref_name>
None


$$$$

     RDKit          2D

 56 58  0  0  1  0  0  0  0  0999 V2000
    3.3917   -4.3750    0.0000 C   0  0  0  0  0  0  0  0  0  0  0  0
    3.7417   -3.7625    0.0000 C   0  0  0  0  0  0  0  0  0  0  0  0
    1.4792   -2.6667    0.0000 C   0  0  0  0  0  0  0  0  0  0  0  0
    0.2625   -2.6667    0.0000 C   0  0  0  0  0  0  0  0  0  0  0  0
   -0.3500   -0.9042    0.0000 C   0  0  0  0  0  0  0  0  0  0  0  0
    0.8750   -3.0167    0.0000 C   0  0  0  0  0  0  0  0  0  0  0  0
    2.0917   -1.6125    0.0000 C   0  0  0  0  0  0  0  0  0  0  0  0
    1.4792   -1.9625    0.0000 C   0  0  0  0  0  0  0  0  0  0  0  0
    0.2625    0.1458    0.0000 C   0  0  0  0  0  0  0  0  0  0  0  0
    0.2625   -1.9667    0.0000 O   0  0  0  0  0  0  0  0  0  0  0  0
    0.2625   -0.5625    0.0000 C   0  0  0  0  0  0  0  0  0  0  0  0
    2.6875   -4.3750    0.0000 C   0  0  0  0  0  0  0  0  0  0  0  0
    0.8667    0.4958    0.0000 C   0  0  0  0  0  0  0  0  0  0  0  0
    3.7417   -2.8167    0.0000 O   0  0  0  0  0  0  0  0  0  0  0  0
    0.0917   -5.7500    0.0000 C   0  0  0  0  0  0  0  0  0  0  0  0
    2.0917   -0.9042    0.0000 C   0  0  0  0  0  0  0  0  0  0  0  0
    1.1542   -5.1375    0.0000 C   0  0  0  0  0  0  0  0  0  0  0  0
    0.8042   -5.7500    0.0000 C   0  0  0  0  0  0  0  0  0  0  0  0
    3.3917   -3.1500    0.0000 O   0  0  0  0  0  0  0  0  0  0  0  0
    0.8042   -4.5250    0.0000 O   0  0  0  0  0  0  0  0  0  0  0  0
   -0.3500   -1.6167    0.0000 C   0  0  0  0  0  0  0  0  0  0  0  0
   -0.2625   -5.1375    0.0000 C   0  0  0  0  0  0  0  0  0  0  0  0
    3.7500   -4.9875    0.0000 O   0  0  0  0  0  0  0  0  0  0  0  0
    3.7417   -5.6917    0.0000 C   0  0  0  0  0  0  0  0  0  0  0  0
    2.0917   -3.0167    0.0000 O   0  0  0  0  0  0  0  0  0  0  0  0
    0.0917   -4.5250    0.0000 C   0  0  0  0  0  0  0  0  0  0  0  0
    1.4792    0.1458    0.0000 C   0  0  0  0  0  0  0  0  0  0  0  0
    1.4792   -0.5542    0.0000 C   0  0  0  0  0  0  0  0  0  0  0  0
    2.3292   -3.7625    0.0000 C   0  0  0  0  0  0  0  0  0  0  0  0
    2.3292   -4.9875    0.0000 N   0  0  0  0  0  0  0  0  0  0  0  0
   -0.3583   -3.0250    0.0000 O   0  0  0  0  0  0  0  0  0  0  0  0
    2.6875   -3.1500    0.0000 C   0  0  0  0  0  0  0  0  0  0  0  0
    0.8667    1.2083    0.0000 O   0  0  0  0  0  0  0  0  0  0  0  0
    3.1292   -6.0417    0.0000 O   0  0  0  0  0  0  0  0  0  0  0  0
   -0.7083   -0.2917    0.0000 O   0  0  0  0  0  0  0  0  0  0  0  0
    2.4417   -0.2917    0.0000 O   0  0  0  0  0  0  0  0  0  0  0  0
    0.8667   -0.9167    0.0000 O   0  0  0  0  0  0  0  0  0  0  0  0
   -0.5208   -6.1000    0.0000 O   0  0  0  0  0  0  0  0  0  0  0  0
   -0.9708   -5.1375    0.0000 O   0  0  0  0  0  0  0  0  0  0  0  0
    4.3542   -6.0500    0.0000 O   0  0  0  0  0  0  0  0  0  0  0  0
   -1.0583   -0.9042    0.0000 C   0  0  0  0  0  0  0  0  0  0  0  0
    0.8750   -3.7292    0.0000 C   0  0  0  0  0  0  0  0  0  0  0  0
    0.8667   -1.6042    0.0000 C   0  0  0  0  0  0  0  0  0  0  0  0
   -0.3583    0.4958    0.0000 C   0  0  0  0  0  0  0  0  0  0  0  0
    0.0917   -6.4542    0.0000 C   0  0  0  0  0  0  0  0  0  0  0  0
    2.8042   -0.9042    0.0000 C   0  0  0  0  0  0  0  0  0  0  0  0
   -0.9708   -1.9667    0.0000 C   0  0  0  0  0  0  0  0  0  0  0  0
   -0.2583   -3.9042    0.0000 C   0  0  0  0  0  0  0  0  0  0  0  0
    2.0917    0.5083    0.0000 C   0  0  0  0  0  0  0  0  0  0  0  0
    1.6250   -4.9875    0.0000 C   0  0  0  0  0  0  0  0  0  0  0  0
    2.6875   -5.6000    0.0000 C   0  0  0  0  0  0  0  0  0  0  0  0
    2.3292   -2.5292    0.0000 C   0  0  0  0  0  0  0  0  0  0  0  0
    4.9667   -5.7000    0.0000 C   0  0  0  0  0  0  0  0  0  0  0  0
   -1.1333   -5.7375    0.0000 C   0  0  0  0  0  0  0  0  0  0  0  0
   -1.5833   -1.6167    0.0000 C   0  0  0  0  0  0  0  0  0  0  0  0
    5.5792   -6.0542    0.0000 C   0  0  0  0  0  0  0  0  0  0  0  0
  2  1  1  0
  3  8  1  0
  4  6  1  0
  5 11  1  0
  6  3  1  0
  7 14  1  6
  8  7  1  0
  9 13  1  0
 10  4  1  0
 11  9  1  0
 12  1  1  0
 13 27  1  0
  2 14  1  1
 15 18  1  0
 16  7  1  0
 17 25  1  1
 18 17  1  0
 19  2  1  0
 20 17  1  0
 21 10  1  0
 22 26  1  0
  1 23  1  6
 24 23  1  0
  3 25  1  6
 26 20  1  0
 27 28  1  0
 28 16  1  0
 29 12  1  0
 12 30  1  1
 31  4  2  0
 32 29  1  0
 33 13  2  0
 34 24  2  0
  5 35  1  1
 16 36  1  1
 11 37  1  1
 15 38  1  0
 22 39  1  1
 40 24  1  0
 41  5  1  0
  6 42  1  1
  8 43  1  6
  9 44  1  1
 15 45  1  6
 46 16  1  0
 21 47  1  6
 26 48  1  6
 27 49  1  6
 50 30  1  0
 51 30  1  0
 32 52  1  1
 53 40  1  0
 54 38  1  0
 55 47  1  0
 56 53  1  0
 32 19  1  0
 21  5  1  0
 22 15  1  0
M  END

> <chembl_id>
CHEMBL2106182

> <chembl_pref_name>
ERYTHROMYCIN ETHYLCARBONATE


$$$$

     RDKit          2D

 54 56  0  0  0  0  0  0  0  0999 V2000
    0.0642   -0.5373    0.0000 C   0  0  0  0  0  0  0  0  0  0  0  0
   -0.1179   -1.2784    0.0000 C   0  0  0  0  0  0  0  0  0  0  0  0
   -3.0170   -3.9045    0.0000 C   0  0  0  0  0  0  0  0  0  0  0  0
   -4.8111   -3.9306    0.0000 C   0  0  0  0  0  0  0  0  0  0  0  0
   -5.6757   -1.4539    0.0000 C   0  0  0  0  0  0  0  0  0  0  0  0
   -3.8946   -4.3986    0.0000 C   0  0  0  0  0  0  0  0  0  0  0  0
   -2.1850   -2.4290    0.0000 C   0  0  0  0  0  0  0  0  0  0  0  0
   -3.0170   -3.0465    0.0000 C   0  0  0  0  0  0  0  0  0  0  0  0
   -4.8306    0.0672    0.0000 C   0  0  0  0  0  0  0  0  0  0  0  0
   -4.8111   -2.9489    0.0000 O   0  0  0  0  0  0  0  0  0  0  0  0
   -4.8306   -0.7843    0.0000 C   0  0  0  0  0  0  0  0  0  0  0  0
    0.8767   -0.3943    0.0000 C   0  0  0  0  0  0  0  0  0  0  0  0
   -4.0181    0.6393    0.0000 C   0  0  0  0  0  0  0  0  0  0  0  0
   -1.0669   -1.9024    0.0000 O   0  0  0  0  0  0  0  0  0  0  0  0
   -0.1503   -3.9045    0.0000 C   0  0  0  0  0  0  0  0  0  0  0  0
   -2.1850   -1.4344    0.0000 C   0  0  0  0  0  0  0  0  0  0  0  0
   -1.2814   -4.5480    0.0000 C   0  0  0  0  0  0  0  0  0  0  0  0
   -0.9174   -3.8721    0.0000 C   0  0  0  0  0  0  0  0  0  0  0  0
    0.3762   -1.8634    0.0000 O   0  0  0  0  0  0  0  0  0  0  0  0
   -0.9174   -5.1981    0.0000 O   0  0  0  0  0  0  0  0  0  0  0  0
   -5.6757   -2.4809    0.0000 C   0  0  0  0  0  0  0  0  0  0  0  0
    0.2202   -4.5871    0.0000 C   0  0  0  0  0  0  0  0  0  0  0  0
   -2.1460   -4.0866    0.0000 O   0  0  0  0  0  0  0  0  0  0  0  0
   -0.1179   -5.1981    0.0000 C   0  0  0  0  0  0  0  0  0  0  0  0
   -3.0821    0.0933    0.0000 C   0  0  0  0  0  0  0  0  0  0  0  0
    0.0057    0.3207    0.0000 O   0  0  0  0  0  0  0  0  0  0  0  0
   -3.0821   -0.7843    0.0000 C   0  0  0  0  0  0  0  0  0  0  0  0
    1.3837   -0.9664    0.0000 C   0  0  0  0  0  0  0  0  0  0  0  0
    0.8182    1.2438    0.0000 C   0  0  0  0  0  0  0  0  0  0  0  0
    1.4293    0.3402    0.0000 N   0  0  0  0  0  0  0  0  0  0  0  0
   -5.3637   -4.5156    0.0000 O   0  0  0  0  0  0  0  0  0  0  0  0
    1.0978   -1.7269    0.0000 C   0  0  0  0  0  0  0  0  0  0  0  0
   -4.0181    1.4973    0.0000 O   0  0  0  0  0  0  0  0  0  0  0  0
    1.6828    1.4713    0.0000 O   0  0  0  0  0  0  0  0  0  0  0  0
   -6.6443   -1.0573    0.0000 O   0  0  0  0  0  0  0  0  0  0  0  0
   -2.1005   -0.1278    0.0000 O   0  0  0  0  0  0  0  0  0  0  0  0
   -3.9401   -1.2979    0.0000 O   0  0  0  0  0  0  0  0  0  0  0  0
   -0.3258   -2.9684    0.0000 O   0  0  0  0  0  0  0  0  0  0  0  0
    1.3123   -4.5156    0.0000 O   0  0  0  0  0  0  0  0  0  0  0  0
   -6.7223   -2.2730    0.0000 C   0  0  0  0  0  0  0  0  0  0  0  0
   -3.8946   -5.3281    0.0000 C   0  0  0  0  0  0  0  0  0  0  0  0
   -3.7646   -2.3510    0.0000 C   0  0  0  0  0  0  0  0  0  0  0  0
   -5.7082    0.6588    0.0000 C   0  0  0  0  0  0  0  0  0  0  0  0
    0.9222   -3.6900    0.0000 C   0  0  0  0  0  0  0  0  0  0  0  0
   -1.3399   -0.7843    0.0000 C   0  0  0  0  0  0  0  0  0  0  0  0
   -6.2152   -3.2220    0.0000 C   0  0  0  0  0  0  0  0  0  0  0  0
    0.8767   -5.3932    0.0000 C   0  0  0  0  0  0  0  0  0  0  0  0
   -2.1005    0.9838    0.0000 C   0  0  0  0  0  0  0  0  0  0  0  0
    0.3177    1.8613    0.0000 C   0  0  0  0  0  0  0  0  0  0  0  0
    0.9612    0.7302    0.0000 C   0  0  0  0  0  0  0  0  0  0  0  0
    2.1118    0.5742    0.0000 C   0  0  0  0  0  0  0  0  0  0  0  0
    1.7737   -2.5070    0.0000 C   0  0  0  0  0  0  0  0  0  0  0  0
   -1.0279   -2.5850    0.0000 C   0  0  0  0  0  0  0  0  0  0  0  0
   -6.6443   -3.9306    0.0000 C   0  0  0  0  0  0  0  0  0  0  0  0
  2  1  1  0
  3  8  1  0
  4  6  1  0
  5 11  1  0
  6  3  1  0
  7 14  1  6
  8  7  1  0
  9 13  1  0
 10  4  1  0
 11  9  1  0
 12  1  1  0
 13 25  1  0
  2 14  1  1
 15 18  1  0
 16  7  1  0
 17 23  1  1
 18 17  1  0
 19  2  1  0
 20 17  1  0
 21 10  1  0
 22 15  1  0
  3 23  1  6
 24 20  1  0
 25 27  1  0
  1 26  1  6
 27 16  1  0
 28 12  1  0
 29 26  1  0
 12 30  1  1
 31  4  2  0
 32 28  1  0
 33 13  2  0
 34 29  2  0
  5 35  1  1
 16 36  1  1
 11 37  1  1
 15 38  1  1
 22 39  1  1
  5 40  1  6
  6 41  1  1
  8 42  1  6
  9 43  1  1
 15 44  1  6
 16 45  1  6
 21 46  1  6
 24 47  1  6
 25 48  1  6
 49 29  1  0
 50 30  1  0
 51 30  1  0
 32 52  1  1
 53 38  1  0
 54 46  1  0
 19 32  1  0
 21  5  1  0
 24 22  1  0
M  END

> <chembl_id>
CHEMBL2110577

> <chembl_pref_name>
ERYTHROMYCIN ACISTRATE


$$$$

     RDKit          2D

 51 51  0  0  1  0  0  0  0  0999 V2000
   -4.9447   -3.1280    0.0000 C   0  0  0  0  0  0  0  0  0  0  0  0
   -3.9074   -3.7313    0.0000 C   0  0  0  0  0  0  0  0  0  0  0  0
   -2.6048   -2.9858    0.0000 C   0  0  0  0  0  0  0  0  0  0  0  0
   -1.3074   -3.7403    0.0000 O   0  0  0  0  0  0  0  0  0  0  0  0
   -0.0048   -2.9949    0.0000 C   0  0  0  0  0  0  0  0  0  0  0  0
   -0.0007   -1.7949    0.0000 O   0  0  0  0  0  0  0  0  0  0  0  0
    1.2925   -3.7494    0.0000 C   0  0  0  0  0  0  0  0  0  0  0  0
    1.2883   -4.9494    0.0000 C   0  0  0  0  0  0  0  0  0  0  0  0
    2.5951   -3.0039    0.0000 C   0  0  0  0  0  0  0  0  0  0  0  0
    2.5973   -1.5031    0.0000 O   0  0  0  0  0  0  0  0  0  0  0  0
    1.2990   -0.7500    0.0000 C   0  0  0  0  0  0  0  0  0  0  0  0
    1.2990    0.7500    0.0000 C   0  0  0  0  0  0  0  0  0  0  0  0
    0.0000    1.5000    0.0000 C   0  0  0  0  0  0  0  0  0  0  0  0
   -1.0536    2.0744    0.0000 C   0  0  0  0  0  0  0  0  0  0  0  0
    1.2999    2.2084    0.0000 O   0  0  0  0  0  0  0  0  0  0  0  0
    2.3394    1.6089    0.0000 C   0  0  0  0  0  0  0  0  0  0  0  0
   -1.2990    0.7500    0.0000 C   0  0  0  0  0  0  0  0  0  0  0  0
   -2.3383    1.3500    0.0000 O   0  0  0  0  0  0  0  0  0  0  0  0
   -1.2990   -0.7500    0.0000 C   0  0  0  0  0  0  0  0  0  0  0  0
   -2.3383   -1.3500    0.0000 C   0  0  0  0  0  0  0  0  0  0  0  0
    0.0000   -1.5000    0.0000 O   0  0  0  0  0  0  0  0  0  0  0  0
    3.8933   -3.7570    0.0000 C   0  0  0  0  0  0  0  0  0  0  0  0
    4.9336   -3.1588    0.0000 C   0  0  0  0  0  0  0  0  0  0  0  0
    3.8912   -5.2578    0.0000 C   0  0  0  0  0  0  0  0  0  0  0  0
    2.5886   -6.0033    0.0000 O   0  0  0  0  0  0  0  0  0  0  0  0
    1.2912   -5.2488    0.0000 C   0  0  0  0  0  0  0  0  0  0  0  0
    1.2994   -3.7479    0.0000 O   0  0  0  0  0  0  0  0  0  0  0  0
    2.6028   -3.0038    0.0000 C   0  0  0  0  0  0  0  0  0  0  0  0
    2.6094   -1.8039    0.0000 C   0  0  0  0  0  0  0  0  0  0  0  0
    3.6389   -3.6092    0.0000 C   0  0  0  0  0  0  0  0  0  0  0  0
   -0.0122   -5.9928    0.0000 C   0  0  0  0  0  0  0  0  0  0  0  0
   -1.0483   -5.3873    0.0000 O   0  0  0  0  0  0  0  0  0  0  0  0
   -0.0205   -7.4936    0.0000 C   0  0  0  0  0  0  0  0  0  0  0  0
   -1.3239   -8.2376    0.0000 N   0  0  0  0  0  0  0  0  0  0  0  0
   -1.3305   -9.4376    0.0000 C   0  0  0  0  0  0  0  0  0  0  0  0
   -2.3600   -7.6322    0.0000 C   0  0  0  0  0  0  0  0  0  0  0  0
    5.1894   -6.0109    0.0000 C   0  0  0  0  0  0  0  0  0  0  0  0
    6.2297   -5.4127    0.0000 C   0  0  0  0  0  0  0  0  0  0  0  0
    6.2277   -6.6125    0.0000 O   0  0  0  0  0  0  0  0  0  0  0  0
    5.1873   -7.5117    0.0000 C   0  0  0  0  0  0  0  0  0  0  0  0
    6.4855   -8.2648    0.0000 C   0  0  0  0  0  0  0  0  0  0  0  0
    7.5257   -7.6666    0.0000 C   0  0  0  0  0  0  0  0  0  0  0  0
    6.4833   -9.7656    0.0000 C   0  0  0  0  0  0  0  0  0  0  0  0
    5.4431  -10.3638    0.0000 O   0  0  0  0  0  0  0  0  0  0  0  0
    7.7815  -10.5187    0.0000 C   0  0  0  0  0  0  0  0  0  0  0  0
    8.8218   -9.9205    0.0000 C   0  0  0  0  0  0  0  0  0  0  0  0
    7.7794  -12.0195    0.0000 C   0  0  0  0  0  0  0  0  0  0  0  0
    6.7391  -12.6177    0.0000 O   0  0  0  0  0  0  0  0  0  0  0  0
    9.0776  -12.7726    0.0000 C   0  0  0  0  0  0  0  0  0  0  0  0
   10.1179  -12.1744    0.0000 C   0  0  0  0  0  0  0  0  0  0  0  0
    9.0759  -13.9726    0.0000 O   0  0  0  0  0  0  0  0  0  0  0  0
  1  2  1  0
  2  3  1  0
  3  4  1  0
  4  5  1  0
  5  6  2  0
  5  7  1  0
  7  8  1  1
  7  9  1  0
  9 10  1  1
 11 10  1  6
 11 12  1  0
 12 13  1  0
 13 14  1  1
 13 15  1  0
 15 16  1  0
 13 17  1  0
 17 18  1  6
 17 19  1  0
 19 20  1  1
 19 21  1  0
 21 11  1  0
  9 22  1  0
 22 23  1  6
 22 24  1  0
 24 25  1  6
 26 25  1  1
 26 27  1  0
 27 28  1  0
 28 29  1  0
 28 30  1  0
 26 31  1  0
 31 32  1  1
 31 33  1  0
 33 34  1  0
 34 35  1  0
 34 36  1  0
 24 37  1  0
 37 38  1  1
 37 39  1  0
 37 40  1  0
 40 41  1  0
 41 42  1  1
 41 43  1  0
 43 44  1  0
 43 45  1  0
 45 46  1  6
 45 47  1  0
 47 48  1  6
 47 49  1  0
 49 50  1  6
 49 51  1  0
M  END

> <chembl_id>
CHEMBL4111332

> <chembl_pref_name>
None


$$$$

     RDKit          2D

 71 76  0  0  1  0  0  0  0  0999 V2000
    2.8507   -3.3102    0.0000 C   0  0  0  0  0  0  0  0  0  0  0  0
    2.8623   -4.1397    0.0000 C   0  0  0  0  0  0  0  0  0  0  0  0
    0.7166   -6.2076    0.0000 C   0  0  0  0  0  0  0  0  0  0  0  0
    0.0039   -7.4460    0.0000 C   0  0  0  0  0  0  0  0  0  0  0  0
    0.7166   -7.0371    0.0000 C   0  0  0  0  0  0  0  0  0  0  0  0
   -1.4253   -5.7987    0.0000 C   0  0  0  0  0  0  0  0  0  0  0  0
    1.4293   -4.9692    0.0000 C   0  0  0  0  0  0  0  0  0  0  0  0
    1.4293   -5.7987    0.0000 C   0  0  0  0  0  0  0  0  0  0  0  0
   -0.7087   -7.0371    0.0000 O   0  0  0  0  0  0  0  0  0  0  0  0
    3.5322   -0.4128    0.0000 C   0  0  0  0  0  0  0  0  0  0  0  0
    0.7166   -4.5603    0.0000 C   0  0  0  0  0  0  0  0  0  0  0  0
    3.5633   -2.8896    0.0000 C   0  0  0  0  0  0  0  0  0  0  0  0
    2.1497   -4.5603    0.0000 O   0  0  0  0  0  0  0  0  0  0  0  0
    4.4084    0.5802    0.0000 C   0  0  0  0  0  0  0  0  0  0  0  0
    4.8368   -0.1285    0.0000 C   0  0  0  0  0  0  0  0  0  0  0  0
    2.8507   -8.2638    0.0000 C   0  0  0  0  0  0  0  0  0  0  0  0
    3.6101    0.4050    0.0000 C   0  0  0  0  0  0  0  0  0  0  0  0
    4.2877   -0.7400    0.0000 C   0  0  0  0  0  0  0  0  0  0  0  0
   -0.2998   -3.0181    0.0000 N   0  0  0  0  0  0  0  0  0  0  0  0
    2.1419   -7.0332    0.0000 C   0  0  0  0  0  0  0  0  0  0  0  0
   -1.4253   -4.9692    0.0000 C   0  0  0  0  0  0  0  0  0  0  0  0
    2.1419   -7.8549    0.0000 C   0  0  0  0  0  0  0  0  0  0  0  0
    3.5789   -4.5447    0.0000 O   0  0  0  0  0  0  0  0  0  0  0  0
    2.8546   -6.6165    0.0000 O   0  0  0  0  0  0  0  0  0  0  0  0
   -0.7087   -6.2076    0.0000 C   0  0  0  0  0  0  0  0  0  0  0  0
    3.5672   -7.8627    0.0000 C   0  0  0  0  0  0  0  0  0  0  0  0
   -0.7087   -4.5603    0.0000 C   0  0  0  0  0  0  0  0  0  0  0  0
    0.7166   -3.7308    0.0000 C   0  0  0  0  0  0  0  0  0  0  0  0
    2.1186   -2.0796    0.0000 C   0  0  0  0  0  0  0  0  0  0  0  0
    2.1302   -2.9013    0.0000 O   0  0  0  0  0  0  0  0  0  0  0  0
    1.4293   -6.6165    0.0000 O   0  0  0  0  0  0  0  0  0  0  0  0
    3.5672   -7.0371    0.0000 C   0  0  0  0  0  0  0  0  0  0  0  0
   -0.7087   -3.7308    0.0000 C   0  0  0  0  0  0  0  0  0  0  0  0
    0.3038   -3.0142    0.0000 C   0  0  0  0  0  0  0  0  0  0  0  0
    4.2799   -3.2985    0.0000 C   0  0  0  0  0  0  0  0  0  0  0  0
    2.8273   -0.8334    0.0000 C   0  0  0  0  0  0  0  0  0  0  0  0
    3.5516   -2.0679    0.0000 N   0  0  0  0  0  0  0  0  0  0  0  0
    0.0039   -8.2755    0.0000 O   0  0  0  0  0  0  0  0  0  0  0  0
    4.2877   -4.1280    0.0000 C   0  0  0  0  0  0  0  0  0  0  0  0
    2.7105   -1.5694    0.0000 O   0  0  0  0  0  0  0  0  0  0  0  0
    1.4059   -1.6746    0.0000 O   0  0  0  0  0  0  0  0  0  0  0  0
   -2.1457   -5.3781    0.0000 O   0  0  0  0  0  0  0  0  0  0  0  0
    4.2799   -8.2755    0.0000 N   0  0  0  0  0  0  0  0  0  0  0  0
    0.0039   -4.9653    0.0000 O   0  0  0  0  0  0  0  0  0  0  0  0
    3.2596   -8.9765    0.0000 O   0  0  0  0  0  0  0  0  0  0  0  0
   -2.1457   -4.5564    0.0000 O   0  0  0  0  0  0  0  0  0  0  0  0
   -2.1457   -6.1920    0.0000 C   0  0  0  0  0  0  0  0  0  0  0  0
    1.4293   -7.4460    0.0000 C   0  0  0  0  0  0  0  0  0  0  0  0
   -0.7204   -2.3016    0.0000 C   0  0  0  0  0  0  0  0  0  0  0  0
    2.1497   -6.2076    0.0000 C   0  0  0  0  0  0  0  0  0  0  0  0
    0.5159   -5.3477    0.0000 C   0  0  0  0  0  0  0  0  0  0  0  0
    2.2665   -8.8480    0.0000 C   0  0  0  0  0  0  0  0  0  0  0  0
    4.6615    1.3630    0.0000 C   0  0  0  0  0  0  0  0  0  0  0  0
    5.6351   -0.2921    0.0000 C   0  0  0  0  0  0  0  0  0  0  0  0
    4.5486   -1.5227    0.0000 C   0  0  0  0  0  0  0  0  0  0  0  0
    3.0532    1.0047    0.0000 C   0  0  0  0  0  0  0  0  0  0  0  0
   -1.9588   -1.5889    0.0000 F   0  0  0  0  0  0  0  0  0  0  0  0
   -1.4253   -4.1397    0.0000 C   0  0  0  0  0  0  0  0  0  0  0  0
   -1.4331   -6.6165    0.0000 C   0  0  0  0  0  0  0  0  0  0  0  0
    4.2799   -6.6282    0.0000 C   0  0  0  0  0  0  0  0  0  0  0  0
    0.7127   -2.2938    0.0000 C   0  0  0  0  0  0  0  0  0  0  0  0
    3.1350   -1.3475    0.0000 C   0  0  0  0  0  0  0  0  0  0  0  0
    4.3500   -1.8459    0.0000 C   0  0  0  0  0  0  0  0  0  0  0  0
    5.0043   -4.5369    0.0000 C   0  0  0  0  0  0  0  0  0  0  0  0
   -1.5422   -2.3016    0.0000 C   0  0  0  0  0  0  0  0  0  0  0  0
    2.8429   -9.6891    0.0000 C   0  0  0  0  0  0  0  0  0  0  0  0
   -1.4448   -7.4343    0.0000 C   0  0  0  0  0  0  0  0  0  0  0  0
    5.8999   -1.0671    0.0000 C   0  0  0  0  0  0  0  0  0  0  0  0
    4.1047    1.9705    0.0000 C   0  0  0  0  0  0  0  0  0  0  0  0
    3.2985    1.7875    0.0000 C   0  0  0  0  0  0  0  0  0  0  0  0
    5.3547   -1.6863    0.0000 C   0  0  0  0  0  0  0  0  0  0  0  0
  2  1  1  0
  3  8  1  0
  4  5  1  0
  5  3  1  0
  6 25  1  0
  7 13  1  6
  8  7  1  0
  9  4  1  0
 10 36  1  0
 11  7  1  0
 12  1  1  0
  2 13  1  1
 14 17  2  0
 15 18  2  0
 16 22  1  0
 17 10  1  0
 18 10  1  0
 19 34  1  0
 20 31  1  6
 21 27  1  0
 22 20  1  0
 23  2  1  0
 24 20  1  0
 25  9  1  0
 26 32  1  0
 27 33  1  0
 28 11  1  0
 29 30  1  0
  1 30  1  6
  3 31  1  1
 32 24  1  0
 33 19  1  0
 34 28  1  0
 35 12  1  0
 36 40  1  0
 12 37  1  1
 38  4  2  0
 39 35  1  0
 40 29  1  0
 41 29  2  0
  6 42  1  1
 26 43  1  6
 11 44  1  6
 16 45  1  6
 21 46  1  6
  6 47  1  0
  5 48  1  1
 49 19  1  0
  8 50  1  1
 11 51  1  0
 16 52  1  0
 53 14  1  0
 54 15  1  0
 55 18  1  0
 56 17  1  0
 57 65  1  0
 27 58  1  6
 25 59  1  1
 32 60  1  1
 34 61  1  6
 62 37  1  0
 63 37  1  0
 39 64  1  1
 65 49  1  0
 66 45  1  0
 67 59  1  0
 68 71  1  0
 69 70  1  0
 70 56  2  0
 71 55  2  0
 39 23  1  0
 14 15  1  0
 54 68  2  0
 69 53  2  0
  6 21  1  0
 26 16  1  0
M  END

> <chembl_id>
CHEMBL412588

> <chembl_pref_name>
None


$$$$

     RDKit          2D

 71 76  0  0  1  0  0  0  0  0999 V2000
    2.8506   -3.3101    0.0000 C   0  0  0  0  0  0  0  0  0  0  0  0
    2.8623   -4.1396    0.0000 C   0  0  0  0  0  0  0  0  0  0  0  0
    0.7166   -6.2074    0.0000 C   0  0  0  0  0  0  0  0  0  0  0  0
    0.0039   -7.4458    0.0000 C   0  0  0  0  0  0  0  0  0  0  0  0
    0.7166   -7.0369    0.0000 C   0  0  0  0  0  0  0  0  0  0  0  0
   -1.4253   -5.7985    0.0000 C   0  0  0  0  0  0  0  0  0  0  0  0
    2.8506   -8.2636    0.0000 C   0  0  0  0  0  0  0  0  0  0  0  0
    1.4292   -4.9691    0.0000 C   0  0  0  0  0  0  0  0  0  0  0  0
    1.4292   -5.7985    0.0000 C   0  0  0  0  0  0  0  0  0  0  0  0
   -0.7087   -7.0369    0.0000 O   0  0  0  0  0  0  0  0  0  0  0  0
    3.5321   -0.4128    0.0000 C   0  0  0  0  0  0  0  0  0  0  0  0
    3.5632   -2.8895    0.0000 C   0  0  0  0  0  0  0  0  0  0  0  0
    0.7166   -4.5602    0.0000 C   0  0  0  0  0  0  0  0  0  0  0  0
    2.1496   -4.5602    0.0000 O   0  0  0  0  0  0  0  0  0  0  0  0
    4.4083    0.5802    0.0000 C   0  0  0  0  0  0  0  0  0  0  0  0
    4.8366   -0.1285    0.0000 C   0  0  0  0  0  0  0  0  0  0  0  0
    3.6099    0.4050    0.0000 C   0  0  0  0  0  0  0  0  0  0  0  0
    4.2875   -0.7399    0.0000 C   0  0  0  0  0  0  0  0  0  0  0  0
    3.5671   -7.8624    0.0000 C   0  0  0  0  0  0  0  0  0  0  0  0
   -0.2998   -3.0181    0.0000 N   0  0  0  0  0  0  0  0  0  0  0  0
    2.1419   -7.0330    0.0000 C   0  0  0  0  0  0  0  0  0  0  0  0
    2.1419   -7.8547    0.0000 C   0  0  0  0  0  0  0  0  0  0  0  0
    2.8545   -6.6163    0.0000 O   0  0  0  0  0  0  0  0  0  0  0  0
    3.5671   -7.0369    0.0000 C   0  0  0  0  0  0  0  0  0  0  0  0
   -1.4253   -4.9691    0.0000 C   0  0  0  0  0  0  0  0  0  0  0  0
    3.5788   -4.5446    0.0000 O   0  0  0  0  0  0  0  0  0  0  0  0
   -0.7087   -6.2074    0.0000 C   0  0  0  0  0  0  0  0  0  0  0  0
   -0.7087   -4.5602    0.0000 C   0  0  0  0  0  0  0  0  0  0  0  0
    0.7166   -3.7307    0.0000 C   0  0  0  0  0  0  0  0  0  0  0  0
    2.1185   -2.0795    0.0000 C   0  0  0  0  0  0  0  0  0  0  0  0
    2.1302   -2.9012    0.0000 O   0  0  0  0  0  0  0  0  0  0  0  0
    1.4292   -6.6163    0.0000 O   0  0  0  0  0  0  0  0  0  0  0  0
   -0.7087   -3.7307    0.0000 C   0  0  0  0  0  0  0  0  0  0  0  0
    0.3037   -3.0141    0.0000 C   0  0  0  0  0  0  0  0  0  0  0  0
    4.2798   -3.2984    0.0000 C   0  0  0  0  0  0  0  0  0  0  0  0
    2.8272   -0.8334    0.0000 C   0  0  0  0  0  0  0  0  0  0  0  0
    3.5515   -2.0678    0.0000 N   0  0  0  0  0  0  0  0  0  0  0  0
    4.2798   -8.2753    0.0000 N   0  0  0  0  0  0  0  0  0  0  0  0
    0.0039   -8.2753    0.0000 O   0  0  0  0  0  0  0  0  0  0  0  0
    4.2875   -4.1279    0.0000 C   0  0  0  0  0  0  0  0  0  0  0  0
    2.7104   -1.5694    0.0000 O   0  0  0  0  0  0  0  0  0  0  0  0
    1.4058   -1.6745    0.0000 O   0  0  0  0  0  0  0  0  0  0  0  0
   -2.1457   -5.3780    0.0000 O   0  0  0  0  0  0  0  0  0  0  0  0
    3.2595   -8.9762    0.0000 O   0  0  0  0  0  0  0  0  0  0  0  0
    0.0039   -4.9651    0.0000 O   0  0  0  0  0  0  0  0  0  0  0  0
   -2.1457   -4.5562    0.0000 O   0  0  0  0  0  0  0  0  0  0  0  0
   -2.1457   -6.1918    0.0000 C   0  0  0  0  0  0  0  0  0  0  0  0
    2.2664   -8.8477    0.0000 C   0  0  0  0  0  0  0  0  0  0  0  0
    1.4292   -7.4458    0.0000 C   0  0  0  0  0  0  0  0  0  0  0  0
    2.1496   -6.2074    0.0000 C   0  0  0  0  0  0  0  0  0  0  0  0
   -0.7204   -2.3015    0.0000 C   0  0  0  0  0  0  0  0  0  0  0  0
    0.5158   -5.3771    0.0000 C   0  0  0  0  0  0  0  0  0  0  0  0
    5.6350   -0.2921    0.0000 C   0  0  0  0  0  0  0  0  0  0  0  0
    4.6614    1.3629    0.0000 C   0  0  0  0  0  0  0  0  0  0  0  0
    3.0531    1.0047    0.0000 C   0  0  0  0  0  0  0  0  0  0  0  0
    4.5485   -1.5227    0.0000 C   0  0  0  0  0  0  0  0  0  0  0  0
    4.2798   -6.6280    0.0000 C   0  0  0  0  0  0  0  0  0  0  0  0
   -1.4253   -4.1396    0.0000 C   0  0  0  0  0  0  0  0  0  0  0  0
   -1.4330   -6.6163    0.0000 C   0  0  0  0  0  0  0  0  0  0  0  0
    0.7126   -2.2937    0.0000 C   0  0  0  0  0  0  0  0  0  0  0  0
    3.1349   -1.3474    0.0000 C   0  0  0  0  0  0  0  0  0  0  0  0
    4.3499   -1.8459    0.0000 C   0  0  0  0  0  0  0  0  0  0  0  0
    4.9924   -7.8664    0.0000 C   0  0  0  0  0  0  0  0  0  0  0  0
    4.2759   -9.1047    0.0000 C   0  0  0  0  0  0  0  0  0  0  0  0
    5.0041   -4.5368    0.0000 C   0  0  0  0  0  0  0  0  0  0  0  0
    2.8428   -9.6889    0.0000 C   0  0  0  0  0  0  0  0  0  0  0  0
   -1.4447   -7.4341    0.0000 C   0  0  0  0  0  0  0  0  0  0  0  0
    4.1045    1.9704    0.0000 C   0  0  0  0  0  0  0  0  0  0  0  0
    3.2984    1.7874    0.0000 C   0  0  0  0  0  0  0  0  0  0  0  0
    5.3546   -1.6862    0.0000 C   0  0  0  0  0  0  0  0  0  0  0  0
    5.8998   -1.0670    0.0000 C   0  0  0  0  0  0  0  0  0  0  0  0
  2  1  1  0
  3  9  1  0
  4  5  1  0
  5  3  1  0
  6 27  1  0
  7 22  1  0
  8 14  1  6
  9  8  1  0
 10  4  1  0
 11 36  1  0
 12  1  1  0
 13  8  1  0
  2 14  1  1
 15 17  2  0
 16 18  2  0
 17 11  1  0
 18 11  1  0
 19 24  1  0
 20 34  1  0
 21 32  1  6
 22 21  1  0
 23 21  1  0
 24 23  1  0
 25 28  1  0
 26  2  1  0
 27 10  1  0
 28 33  1  0
 29 13  1  0
 30 31  1  0
  1 31  1  6
  3 32  1  1
 33 20  1  0
 34 29  1  0
 35 12  1  0
 36 41  1  0
 12 37  1  1
 19 38  1  6
 39  4  2  0
 40 35  1  0
 41 30  1  0
 42 30  2  0
  6 43  1  1
  7 44  1  6
 13 45  1  6
 25 46  1  6
  6 47  1  0
  7 48  1  0
  5 49  1  1
  9 50  1  1
 51 20  1  0
 13 52  1  0
 53 16  1  0
 54 15  1  0
 55 17  1  0
 56 18  1  0
 24 57  1  1
 28 58  1  6
 27 59  1  1
 34 60  1  6
 61 37  1  0
 62 37  1  0
 63 38  1  0
 64 38  1  0
 40 65  1  1
 66 44  1  0
 67 59  1  0
 68 69  1  0
 69 55  2  0
 70 56  2  0
 71 70  1  0
 40 26  1  0
 15 16  1  0
 53 71  2  0
 68 54  2  0
  6 25  1  0
 19  7  1  0
M  END

> <chembl_id>
CHEMBL216946

> <chembl_pref_name>
None


$$$$

     RDKit          2D

 71 76  0  0  1  0  0  0  0  0999 V2000
    2.8506   -3.3101    0.0000 C   0  0  0  0  0  0  0  0  0  0  0  0
    2.8623   -4.1396    0.0000 C   0  0  0  0  0  0  0  0  0  0  0  0
    0.7166   -6.2074    0.0000 C   0  0  0  0  0  0  0  0  0  0  0  0
    0.0039   -7.4458    0.0000 C   0  0  0  0  0  0  0  0  0  0  0  0
    0.7166   -7.0369    0.0000 C   0  0  0  0  0  0  0  0  0  0  0  0
   -1.4253   -5.7985    0.0000 C   0  0  0  0  0  0  0  0  0  0  0  0
    1.4292   -4.9691    0.0000 C   0  0  0  0  0  0  0  0  0  0  0  0
    1.4292   -5.7985    0.0000 C   0  0  0  0  0  0  0  0  0  0  0  0
   -0.7087   -7.0369    0.0000 O   0  0  0  0  0  0  0  0  0  0  0  0
    3.5321   -0.4128    0.0000 C   0  0  0  0  0  0  0  0  0  0  0  0
    0.7166   -4.5602    0.0000 C   0  0  0  0  0  0  0  0  0  0  0  0
    3.5632   -2.8895    0.0000 C   0  0  0  0  0  0  0  0  0  0  0  0
    2.1496   -4.5602    0.0000 O   0  0  0  0  0  0  0  0  0  0  0  0
    4.4083    0.5802    0.0000 C   0  0  0  0  0  0  0  0  0  0  0  0
    4.8366   -0.1285    0.0000 C   0  0  0  0  0  0  0  0  0  0  0  0
    2.8506   -8.2636    0.0000 C   0  0  0  0  0  0  0  0  0  0  0  0
    3.6099    0.4050    0.0000 C   0  0  0  0  0  0  0  0  0  0  0  0
    4.2875   -0.7399    0.0000 C   0  0  0  0  0  0  0  0  0  0  0  0
   -0.2998   -3.0181    0.0000 N   0  0  0  0  0  0  0  0  0  0  0  0
    2.1419   -7.0330    0.0000 C   0  0  0  0  0  0  0  0  0  0  0  0
   -1.4253   -4.9691    0.0000 C   0  0  0  0  0  0  0  0  0  0  0  0
    2.1419   -7.8547    0.0000 C   0  0  0  0  0  0  0  0  0  0  0  0
    3.5788   -4.5446    0.0000 O   0  0  0  0  0  0  0  0  0  0  0  0
    2.8545   -6.6163    0.0000 O   0  0  0  0  0  0  0  0  0  0  0  0
   -0.7087   -6.2074    0.0000 C   0  0  0  0  0  0  0  0  0  0  0  0
    3.5671   -7.8624    0.0000 C   0  0  0  0  0  0  0  0  0  0  0  0
   -0.7087   -4.5602    0.0000 C   0  0  0  0  0  0  0  0  0  0  0  0
    0.7166   -3.7307    0.0000 C   0  0  0  0  0  0  0  0  0  0  0  0
    2.1185   -2.0795    0.0000 C   0  0  0  0  0  0  0  0  0  0  0  0
    2.1302   -2.9012    0.0000 O   0  0  0  0  0  0  0  0  0  0  0  0
    1.4292   -6.6163    0.0000 O   0  0  0  0  0  0  0  0  0  0  0  0
    3.5671   -7.0369    0.0000 C   0  0  0  0  0  0  0  0  0  0  0  0
   -0.7087   -3.7307    0.0000 C   0  0  0  0  0  0  0  0  0  0  0  0
    0.3037   -3.0141    0.0000 C   0  0  0  0  0  0  0  0  0  0  0  0
    4.2798   -3.2984    0.0000 C   0  0  0  0  0  0  0  0  0  0  0  0
    2.8272   -0.8334    0.0000 C   0  0  0  0  0  0  0  0  0  0  0  0
    3.5515   -2.0678    0.0000 N   0  0  0  0  0  0  0  0  0  0  0  0
    0.0039   -8.2753    0.0000 O   0  0  0  0  0  0  0  0  0  0  0  0
    4.2875   -4.1279    0.0000 C   0  0  0  0  0  0  0  0  0  0  0  0
    2.7104   -1.5694    0.0000 O   0  0  0  0  0  0  0  0  0  0  0  0
    1.4058   -1.6745    0.0000 O   0  0  0  0  0  0  0  0  0  0  0  0
   -2.1457   -5.3780    0.0000 O   0  0  0  0  0  0  0  0  0  0  0  0
   -1.5421   -2.3015    0.0000 C   0  0  0  0  0  0  0  0  0  0  0  0
    4.2798   -8.2753    0.0000 N   0  0  0  0  0  0  0  0  0  0  0  0
    0.0039   -4.9651    0.0000 O   0  0  0  0  0  0  0  0  0  0  0  0
   -1.9588   -1.5888    0.0000 C   0  0  0  0  0  0  0  0  0  0  0  0
    3.2595   -8.9762    0.0000 O   0  0  0  0  0  0  0  0  0  0  0  0
   -0.7204   -2.3015    0.0000 C   0  0  0  0  0  0  0  0  0  0  0  0
   -2.1457   -4.5562    0.0000 O   0  0  0  0  0  0  0  0  0  0  0  0
   -2.1457   -6.1918    0.0000 C   0  0  0  0  0  0  0  0  0  0  0  0
    1.4292   -7.4458    0.0000 C   0  0  0  0  0  0  0  0  0  0  0  0
    2.1496   -6.2074    0.0000 C   0  0  0  0  0  0  0  0  0  0  0  0
    0.4274   -5.4360    0.0000 C   0  0  0  0  0  0  0  0  0  0  0  0
    2.2664   -8.8477    0.0000 C   0  0  0  0  0  0  0  0  0  0  0  0
    4.6614    1.3629    0.0000 C   0  0  0  0  0  0  0  0  0  0  0  0
    5.6350   -0.2921    0.0000 C   0  0  0  0  0  0  0  0  0  0  0  0
    4.5485   -1.5227    0.0000 C   0  0  0  0  0  0  0  0  0  0  0  0
    3.0531    1.0047    0.0000 C   0  0  0  0  0  0  0  0  0  0  0  0
   -1.4253   -4.1396    0.0000 C   0  0  0  0  0  0  0  0  0  0  0  0
   -1.4330   -6.6163    0.0000 C   0  0  0  0  0  0  0  0  0  0  0  0
    4.2798   -6.6280    0.0000 C   0  0  0  0  0  0  0  0  0  0  0  0
    0.7126   -2.2937    0.0000 C   0  0  0  0  0  0  0  0  0  0  0  0
    4.3499   -1.8459    0.0000 C   0  0  0  0  0  0  0  0  0  0  0  0
    3.1349   -1.3474    0.0000 C   0  0  0  0  0  0  0  0  0  0  0  0
    5.0041   -4.5368    0.0000 C   0  0  0  0  0  0  0  0  0  0  0  0
    2.8428   -9.6889    0.0000 C   0  0  0  0  0  0  0  0  0  0  0  0
   -1.4447   -7.4341    0.0000 C   0  0  0  0  0  0  0  0  0  0  0  0
    5.8998   -1.0670    0.0000 C   0  0  0  0  0  0  0  0  0  0  0  0
    4.1045    1.9704    0.0000 C   0  0  0  0  0  0  0  0  0  0  0  0
    3.2984    1.7874    0.0000 C   0  0  0  0  0  0  0  0  0  0  0  0
    5.3546   -1.6862    0.0000 C   0  0  0  0  0  0  0  0  0  0  0  0
  2  1  1  0
  3  8  1  0
  4  5  1  0
  5  3  1  0
  6 25  1  0
  7 13  1  6
  8  7  1  0
  9  4  1  0
 10 36  1  0
 11  7  1  0
 12  1  1  0
  2 13  1  1
 14 17  2  0
 15 18  2  0
 16 22  1  0
 17 10  1  0
 18 10  1  0
 19 34  1  0
 20 31  1  6
 21 27  1  0
 22 20  1  0
 23  2  1  0
 24 20  1  0
 25  9  1  0
 26 32  1  0
 27 33  1  0
 28 11  1  0
 29 30  1  0
  1 30  1  6
  3 31  1  1
 32 24  1  0
 33 19  1  0
 34 28  1  0
 35 12  1  0
 36 40  1  0
 12 37  1  1
 38  4  2  0
 39 35  1  0
 40 29  1  0
 41 29  2  0
  6 42  1  1
 43 48  1  0
 26 44  1  6
 11 45  1  6
 46 43  2  0
 16 47  1  6
 48 19  1  0
 21 49  1  6
  6 50  1  0
  5 51  1  1
  8 52  1  1
 11 53  1  0
 16 54  1  0
 55 14  1  0
 56 15  1  0
 57 18  1  0
 58 17  1  0
 27 59  1  6
 25 60  1  1
 32 61  1  1
 34 62  1  6
 63 37  1  0
 64 37  1  0
 39 65  1  1
 66 47  1  0
 67 60  1  0
 68 71  1  0
 69 70  1  0
 70 58  2  0
 71 57  2  0
 39 23  1  0
 14 15  1  0
 56 68  2  0
 69 55  2  0
  6 21  1  0
 26 16  1  0
M  END

> <chembl_id>
CHEMBL408299

> <chembl_pref_name>
None


$$$$

     RDKit          2D

 73 79  0  0  1  0  0  0  0  0999 V2000
    2.8505   -3.3100    0.0000 C   0  0  0  0  0  0  0  0  0  0  0  0
    2.8622   -4.1395    0.0000 C   0  0  0  0  0  0  0  0  0  0  0  0
    0.7165   -6.2072    0.0000 C   0  0  0  0  0  0  0  0  0  0  0  0
    0.0039   -7.4456    0.0000 C   0  0  0  0  0  0  0  0  0  0  0  0
    0.7165   -7.0367    0.0000 C   0  0  0  0  0  0  0  0  0  0  0  0
    2.8505   -8.2633    0.0000 C   0  0  0  0  0  0  0  0  0  0  0  0
   -1.4252   -5.7984    0.0000 C   0  0  0  0  0  0  0  0  0  0  0  0
    1.4292   -4.9689    0.0000 C   0  0  0  0  0  0  0  0  0  0  0  0
    1.4292   -5.7984    0.0000 C   0  0  0  0  0  0  0  0  0  0  0  0
    3.5670   -7.8622    0.0000 C   0  0  0  0  0  0  0  0  0  0  0  0
   -0.7087   -7.0367    0.0000 O   0  0  0  0  0  0  0  0  0  0  0  0
    3.5320   -0.4128    0.0000 C   0  0  0  0  0  0  0  0  0  0  0  0
    0.7165   -4.5600    0.0000 C   0  0  0  0  0  0  0  0  0  0  0  0
    3.5631   -2.8895    0.0000 C   0  0  0  0  0  0  0  0  0  0  0  0
    2.1495   -4.5600    0.0000 O   0  0  0  0  0  0  0  0  0  0  0  0
    4.4082    0.5802    0.0000 C   0  0  0  0  0  0  0  0  0  0  0  0
    4.8365   -0.1285    0.0000 C   0  0  0  0  0  0  0  0  0  0  0  0
    3.6098    0.4050    0.0000 C   0  0  0  0  0  0  0  0  0  0  0  0
    4.2874   -0.7399    0.0000 C   0  0  0  0  0  0  0  0  0  0  0  0
   -0.2998   -3.0180    0.0000 N   0  0  0  0  0  0  0  0  0  0  0  0
    2.1418   -7.0328    0.0000 C   0  0  0  0  0  0  0  0  0  0  0  0
    4.2797   -8.2750    0.0000 N   0  0  0  0  0  0  0  0  0  0  0  0
    2.1418   -7.8545    0.0000 C   0  0  0  0  0  0  0  0  0  0  0  0
    2.8544   -6.6161    0.0000 O   0  0  0  0  0  0  0  0  0  0  0  0
    3.5670   -7.0367    0.0000 C   0  0  0  0  0  0  0  0  0  0  0  0
   -1.4252   -4.9689    0.0000 C   0  0  0  0  0  0  0  0  0  0  0  0
    3.5787   -4.5444    0.0000 O   0  0  0  0  0  0  0  0  0  0  0  0
   -0.7087   -6.2072    0.0000 C   0  0  0  0  0  0  0  0  0  0  0  0
   -0.7087   -4.5600    0.0000 C   0  0  0  0  0  0  0  0  0  0  0  0
    0.7165   -3.7306    0.0000 C   0  0  0  0  0  0  0  0  0  0  0  0
    2.1184   -2.0795    0.0000 C   0  0  0  0  0  0  0  0  0  0  0  0
    2.1301   -2.9011    0.0000 O   0  0  0  0  0  0  0  0  0  0  0  0
    1.4292   -6.6161    0.0000 O   0  0  0  0  0  0  0  0  0  0  0  0
   -0.7087   -3.7306    0.0000 C   0  0  0  0  0  0  0  0  0  0  0  0
    0.3037   -3.0140    0.0000 C   0  0  0  0  0  0  0  0  0  0  0  0
    4.2797   -3.2983    0.0000 C   0  0  0  0  0  0  0  0  0  0  0  0
    2.8271   -0.8334    0.0000 C   0  0  0  0  0  0  0  0  0  0  0  0
    3.5514   -2.0678    0.0000 N   0  0  0  0  0  0  0  0  0  0  0  0
    0.0039   -8.2750    0.0000 O   0  0  0  0  0  0  0  0  0  0  0  0
    4.3614   -9.0928    0.0000 C   0  0  0  0  0  0  0  0  0  0  0  0
    5.0351   -7.9440    0.0000 C   0  0  0  0  0  0  0  0  0  0  0  0
    4.2874   -4.1278    0.0000 C   0  0  0  0  0  0  0  0  0  0  0  0
    2.7103   -1.5694    0.0000 O   0  0  0  0  0  0  0  0  0  0  0  0
    1.4058   -1.6745    0.0000 O   0  0  0  0  0  0  0  0  0  0  0  0
    5.5842   -8.5554    0.0000 C   0  0  0  0  0  0  0  0  0  0  0  0
    5.1675   -9.2758    0.0000 C   0  0  0  0  0  0  0  0  0  0  0  0
   -2.1456   -5.3778    0.0000 O   0  0  0  0  0  0  0  0  0  0  0  0
    3.2594   -8.9760    0.0000 O   0  0  0  0  0  0  0  0  0  0  0  0
    0.0039   -4.9650    0.0000 O   0  0  0  0  0  0  0  0  0  0  0  0
   -2.1456   -4.5561    0.0000 O   0  0  0  0  0  0  0  0  0  0  0  0
   -2.1456   -6.1916    0.0000 C   0  0  0  0  0  0  0  0  0  0  0  0
    2.2664   -8.8475    0.0000 C   0  0  0  0  0  0  0  0  0  0  0  0
    1.4292   -7.4456    0.0000 C   0  0  0  0  0  0  0  0  0  0  0  0
    2.1495   -6.2072    0.0000 C   0  0  0  0  0  0  0  0  0  0  0  0
   -0.7204   -2.3014    0.0000 C   0  0  0  0  0  0  0  0  0  0  0  0
    0.3979   -5.5832    0.0000 C   0  0  0  0  0  0  0  0  0  0  0  0
    5.6348   -0.2921    0.0000 C   0  0  0  0  0  0  0  0  0  0  0  0
    4.6613    1.3629    0.0000 C   0  0  0  0  0  0  0  0  0  0  0  0
    3.0530    1.0047    0.0000 C   0  0  0  0  0  0  0  0  0  0  0  0
    4.5484   -1.5226    0.0000 C   0  0  0  0  0  0  0  0  0  0  0  0
    4.2797   -6.6278    0.0000 C   0  0  0  0  0  0  0  0  0  0  0  0
   -1.4252   -4.1395    0.0000 C   0  0  0  0  0  0  0  0  0  0  0  0
   -1.4330   -6.6161    0.0000 C   0  0  0  0  0  0  0  0  0  0  0  0
    0.7126   -2.2937    0.0000 C   0  0  0  0  0  0  0  0  0  0  0  0
    3.1348   -1.3474    0.0000 C   0  0  0  0  0  0  0  0  0  0  0  0
    4.3498   -1.8458    0.0000 C   0  0  0  0  0  0  0  0  0  0  0  0
    5.0040   -4.5367    0.0000 C   0  0  0  0  0  0  0  0  0  0  0  0
    2.8427   -9.6886    0.0000 C   0  0  0  0  0  0  0  0  0  0  0  0
   -1.4447   -7.4339    0.0000 C   0  0  0  0  0  0  0  0  0  0  0  0
    5.3544   -1.6862    0.0000 C   0  0  0  0  0  0  0  0  0  0  0  0
    5.8996   -1.0670    0.0000 C   0  0  0  0  0  0  0  0  0  0  0  0
    4.1044    1.9704    0.0000 C   0  0  0  0  0  0  0  0  0  0  0  0
    3.2983    1.7874    0.0000 C   0  0  0  0  0  0  0  0  0  0  0  0
  2  1  1  0
  3  9  1  0
  4  5  1  0
  5  3  1  0
  6 23  1  0
  7 28  1  0
  8 15  1  6
  9  8  1  0
 10 25  1  0
 11  4  1  0
 12 37  1  0
 13  8  1  0
 14  1  1  0
  2 15  1  1
 16 18  2  0
 17 19  2  0
 18 12  1  0
 19 12  1  0
 20 35  1  0
 21 33  1  6
 10 22  1  6
 23 21  1  0
 24 21  1  0
 25 24  1  0
 26 29  1  0
 27  2  1  0
 28 11  1  0
 29 34  1  0
 30 13  1  0
 31 32  1  0
  1 32  1  6
  3 33  1  1
 34 20  1  0
 35 30  1  0
 36 14  1  0
 37 43  1  0
 14 38  1  1
 39  4  2  0
 40 22  1  0
 41 22  1  0
 42 36  1  0
 43 31  1  0
 44 31  2  0
 45 41  2  0
 46 40  2  0
  7 47  1  1
  6 48  1  6
 13 49  1  6
 26 50  1  6
  7 51  1  0
  6 52  1  0
  5 53  1  1
  9 54  1  1
 55 20  1  0
 13 56  1  0
 57 17  1  0
 58 16  1  0
 59 18  1  0
 60 19  1  0
 25 61  1  1
 29 62  1  6
 28 63  1  1
 35 64  1  6
 65 38  1  0
 66 38  1  0
 42 67  1  1
 68 48  1  0
 69 63  1  0
 70 60  2  0
 71 70  1  0
 72 73  1  0
 73 59  2  0
 42 27  1  0
 16 17  1  0
 57 71  2  0
 72 58  2  0
  7 26  1  0
 10  6  1  0
 45 46  1  0
M  END

> <chembl_id>
CHEMBL386537

> <chembl_pref_name>
None


$$$$

     RDKit          2D

 71 76  0  0  1  0  0  0  0  0999 V2000
    5.4238   -1.9806    0.0000 C   0  0  0  0  0  0  0  0  0  0  0  0
    5.4362   -2.8134    0.0000 C   0  0  0  0  0  0  0  0  0  0  0  0
    3.2858   -4.8768    0.0000 C   0  0  0  0  0  0  0  0  0  0  0  0
    2.5772   -6.1199    0.0000 C   0  0  0  0  0  0  0  0  0  0  0  0
    3.2858   -5.7097    0.0000 C   0  0  0  0  0  0  0  0  0  0  0  0
    1.1478   -4.4666    0.0000 C   0  0  0  0  0  0  0  0  0  0  0  0
    4.0026   -3.6421    0.0000 C   0  0  0  0  0  0  0  0  0  0  0  0
    4.0026   -4.4666    0.0000 C   0  0  0  0  0  0  0  0  0  0  0  0
    1.8645   -5.7097    0.0000 O   0  0  0  0  0  0  0  0  0  0  0  0
    6.1074    0.9198    0.0000 C   0  0  0  0  0  0  0  0  0  0  0  0
    3.2858   -3.2319    0.0000 C   0  0  0  0  0  0  0  0  0  0  0  0
    6.1323   -1.5580    0.0000 C   0  0  0  0  0  0  0  0  0  0  0  0
    4.7235   -3.2319    0.0000 O   0  0  0  0  0  0  0  0  0  0  0  0
    6.9776    1.9143    0.0000 C   0  0  0  0  0  0  0  0  0  0  0  0
    7.4126    1.2016    0.0000 C   0  0  0  0  0  0  0  0  0  0  0  0
    5.4238   -6.9361    0.0000 C   0  0  0  0  0  0  0  0  0  0  0  0
    6.1820    1.7361    0.0000 C   0  0  0  0  0  0  0  0  0  0  0  0
    6.8615    0.5925    0.0000 C   0  0  0  0  0  0  0  0  0  0  0  0
    2.2747   -1.6905    0.0000 N   0  0  0  0  0  0  0  0  0  0  0  0
    4.7153   -5.7055    0.0000 C   0  0  0  0  0  0  0  0  0  0  0  0
    1.1478   -3.6421    0.0000 C   0  0  0  0  0  0  0  0  0  0  0  0
    4.7153   -6.5301    0.0000 C   0  0  0  0  0  0  0  0  0  0  0  0
    6.1530   -3.2112    0.0000 O   0  0  0  0  0  0  0  0  0  0  0  0
    5.4238   -5.2870    0.0000 O   0  0  0  0  0  0  0  0  0  0  0  0
    1.8645   -4.8768    0.0000 C   0  0  0  0  0  0  0  0  0  0  0  0
    6.1406   -6.5301    0.0000 C   0  0  0  0  0  0  0  0  0  0  0  0
    1.8645   -3.2319    0.0000 C   0  0  0  0  0  0  0  0  0  0  0  0
    3.2858   -2.4032    0.0000 C   0  0  0  0  0  0  0  0  0  0  0  0
    4.6904   -0.7500    0.0000 C   0  0  0  0  0  0  0  0  0  0  0  0
    4.7028   -1.5704    0.0000 O   0  0  0  0  0  0  0  0  0  0  0  0
    4.0026   -5.2870    0.0000 O   0  0  0  0  0  0  0  0  0  0  0  0
    6.1406   -5.7097    0.0000 C   0  0  0  0  0  0  0  0  0  0  0  0
    1.8645   -2.4032    0.0000 C   0  0  0  0  0  0  0  0  0  0  0  0
    2.8756   -1.6823    0.0000 C   0  0  0  0  0  0  0  0  0  0  0  0
    6.8533   -1.9682    0.0000 C   0  0  0  0  0  0  0  0  0  0  0  0
    5.3989    0.4972    0.0000 C   0  0  0  0  0  0  0  0  0  0  0  0
    6.1199   -0.7376    0.0000 N   0  0  0  0  0  0  0  0  0  0  0  0
    2.5772   -6.9485    0.0000 O   0  0  0  0  0  0  0  0  0  0  0  0
    6.8615   -2.7968    0.0000 C   0  0  0  0  0  0  0  0  0  0  0  0
    5.2829   -0.2404    0.0000 O   0  0  0  0  0  0  0  0  0  0  0  0
    3.9777   -0.3398    0.0000 O   0  0  0  0  0  0  0  0  0  0  0  0
    0.4268   -4.0440    0.0000 O   0  0  0  0  0  0  0  0  0  0  0  0
    6.8533   -6.9485    0.0000 N   0  0  0  0  0  0  0  0  0  0  0  0
    2.5772   -3.6338    0.0000 O   0  0  0  0  0  0  0  0  0  0  0  0
    5.8340   -7.6488    0.0000 O   0  0  0  0  0  0  0  0  0  0  0  0
    0.4268   -3.2236    0.0000 O   0  0  0  0  0  0  0  0  0  0  0  0
    0.4268   -4.8644    0.0000 C   0  0  0  0  0  0  0  0  0  0  0  0
    4.0026   -6.1199    0.0000 C   0  0  0  0  0  0  0  0  0  0  0  0
    1.8521   -0.9737    0.0000 C   0  0  0  0  0  0  0  0  0  0  0  0
    4.7235   -4.8768    0.0000 C   0  0  0  0  0  0  0  0  0  0  0  0
    2.8240   -4.1393    0.0000 C   0  0  0  0  0  0  0  0  0  0  0  0
    4.8396   -7.5245    0.0000 C   0  0  0  0  0  0  0  0  0  0  0  0
    7.2344    2.6932    0.0000 C   0  0  0  0  0  0  0  0  0  0  0  0
    8.2082    1.0400    0.0000 C   0  0  0  0  0  0  0  0  0  0  0  0
    7.1226   -0.1906    0.0000 C   0  0  0  0  0  0  0  0  0  0  0  0
    5.6309    2.3369    0.0000 C   0  0  0  0  0  0  0  0  0  0  0  0
    0.6133   -0.2610    0.0000 F   0  0  0  0  0  0  0  0  0  0  0  0
    1.1478   -2.8134    0.0000 C   0  0  0  0  0  0  0  0  0  0  0  0
    1.1353   -5.2870    0.0000 C   0  0  0  0  0  0  0  0  0  0  0  0
    6.8533   -5.2995    0.0000 C   0  0  0  0  0  0  0  0  0  0  0  0
    3.2858   -0.9613    0.0000 C   0  0  0  0  0  0  0  0  0  0  0  0
    5.7097   -0.0166    0.0000 C   0  0  0  0  0  0  0  0  0  0  0  0
    6.9237   -0.5138    0.0000 C   0  0  0  0  0  0  0  0  0  0  0  0
    7.5742   -3.2070    0.0000 C   0  0  0  0  0  0  0  0  0  0  0  0
    1.0317   -0.9737    0.0000 C   0  0  0  0  0  0  0  0  0  0  0  0
    5.4196   -8.3573    0.0000 C   0  0  0  0  0  0  0  0  0  0  0  0
    1.1229   -6.1074    0.0000 C   0  0  0  0  0  0  0  0  0  0  0  0
    8.4775    0.2610    0.0000 C   0  0  0  0  0  0  0  0  0  0  0  0
    6.6792    3.3023    0.0000 C   0  0  0  0  0  0  0  0  0  0  0  0
    5.8713    3.1283    0.0000 C   0  0  0  0  0  0  0  0  0  0  0  0
    7.9305   -0.3522    0.0000 C   0  0  0  0  0  0  0  0  0  0  0  0
  2  1  1  0
  3  8  1  0
  4  5  1  0
  5  3  1  0
  6 25  1  0
  7 13  1  6
  8  7  1  0
  9  4  1  0
 10 36  1  0
 11  7  1  0
 12  1  1  0
  2 13  1  1
 14 17  2  0
 15 18  2  0
 16 22  1  0
 17 10  1  0
 18 10  1  0
 19 34  1  0
 20 31  1  6
 21 27  1  0
 22 20  1  0
 23  2  1  0
 24 20  1  0
 25  9  1  0
 26 32  1  0
 27 33  1  0
 28 11  1  0
 29 30  1  0
  1 30  1  6
  3 31  1  1
 32 24  1  0
 33 19  1  0
 34 28  1  0
 35 12  1  0
 36 40  1  0
 12 37  1  1
 38  4  2  0
 39 35  1  0
 40 29  1  0
 41 29  2  0
  6 42  1  1
 26 43  1  1
 11 44  1  6
 16 45  1  6
 21 46  1  6
  6 47  1  0
  5 48  1  1
 49 19  1  0
  8 50  1  1
 11 51  1  0
 16 52  1  0
 53 14  1  0
 54 15  1  0
 55 18  1  0
 56 17  1  0
 57 65  1  0
 27 58  1  6
 25 59  1  1
 32 60  1  1
 34 61  1  6
 62 37  1  0
 63 37  1  0
 39 64  1  1
 65 49  1  0
 66 45  1  0
 67 59  1  0
 68 71  1  0
 69 70  1  0
 70 56  2  0
 71 55  2  0
 39 23  1  0
 14 15  1  0
 54 68  2  0
 69 53  2  0
  6 21  1  0
 26 16  1  0
M  END

> <chembl_id>
CHEMBL438461

> <chembl_pref_name>
None


$$$$

     RDKit          2D

 71 76  0  0  1  0  0  0  0  0999 V2000
    2.8506   -3.3101    0.0000 C   0  0  0  0  0  0  0  0  0  0  0  0
    2.8623   -4.1396    0.0000 C   0  0  0  0  0  0  0  0  0  0  0  0
    0.7166   -6.2074    0.0000 C   0  0  0  0  0  0  0  0  0  0  0  0
    0.0039   -7.4458    0.0000 C   0  0  0  0  0  0  0  0  0  0  0  0
    0.7166   -7.0369    0.0000 C   0  0  0  0  0  0  0  0  0  0  0  0
   -1.4253   -5.7985    0.0000 C   0  0  0  0  0  0  0  0  0  0  0  0
    1.4292   -4.9691    0.0000 C   0  0  0  0  0  0  0  0  0  0  0  0
    1.4292   -5.7985    0.0000 C   0  0  0  0  0  0  0  0  0  0  0  0
   -0.7087   -7.0369    0.0000 O   0  0  0  0  0  0  0  0  0  0  0  0
    3.5321   -0.4128    0.0000 C   0  0  0  0  0  0  0  0  0  0  0  0
    0.7166   -4.5602    0.0000 C   0  0  0  0  0  0  0  0  0  0  0  0
    3.5632   -2.8895    0.0000 C   0  0  0  0  0  0  0  0  0  0  0  0
    2.1496   -4.5602    0.0000 O   0  0  0  0  0  0  0  0  0  0  0  0
    4.4083    0.5802    0.0000 C   0  0  0  0  0  0  0  0  0  0  0  0
    4.8366   -0.1285    0.0000 C   0  0  0  0  0  0  0  0  0  0  0  0
    2.8506   -8.2636    0.0000 C   0  0  0  0  0  0  0  0  0  0  0  0
    3.6099    0.4050    0.0000 C   0  0  0  0  0  0  0  0  0  0  0  0
    4.2875   -0.7399    0.0000 C   0  0  0  0  0  0  0  0  0  0  0  0
   -0.2998   -3.0181    0.0000 N   0  0  0  0  0  0  0  0  0  0  0  0
    2.1419   -7.0330    0.0000 C   0  0  0  0  0  0  0  0  0  0  0  0
   -1.4253   -4.9691    0.0000 C   0  0  0  0  0  0  0  0  0  0  0  0
    2.1419   -7.8547    0.0000 C   0  0  0  0  0  0  0  0  0  0  0  0
    3.5788   -4.5446    0.0000 O   0  0  0  0  0  0  0  0  0  0  0  0
    2.8545   -6.6163    0.0000 O   0  0  0  0  0  0  0  0  0  0  0  0
   -0.7087   -6.2074    0.0000 C   0  0  0  0  0  0  0  0  0  0  0  0
    3.5671   -7.8624    0.0000 C   0  0  0  0  0  0  0  0  0  0  0  0
   -0.7087   -4.5602    0.0000 C   0  0  0  0  0  0  0  0  0  0  0  0
    0.7166   -3.7307    0.0000 C   0  0  0  0  0  0  0  0  0  0  0  0
    2.1185   -2.0795    0.0000 C   0  0  0  0  0  0  0  0  0  0  0  0
    2.1302   -2.9012    0.0000 O   0  0  0  0  0  0  0  0  0  0  0  0
    1.4292   -6.6163    0.0000 O   0  0  0  0  0  0  0  0  0  0  0  0
    3.5671   -7.0369    0.0000 C   0  0  0  0  0  0  0  0  0  0  0  0
   -0.7087   -3.7307    0.0000 C   0  0  0  0  0  0  0  0  0  0  0  0
    0.3037   -3.0141    0.0000 C   0  0  0  0  0  0  0  0  0  0  0  0
    4.2798   -3.2984    0.0000 C   0  0  0  0  0  0  0  0  0  0  0  0
    2.8272   -0.8334    0.0000 C   0  0  0  0  0  0  0  0  0  0  0  0
    3.5515   -2.0678    0.0000 N   0  0  0  0  0  0  0  0  0  0  0  0
    0.0039   -8.2753    0.0000 O   0  0  0  0  0  0  0  0  0  0  0  0
    4.2875   -4.1279    0.0000 C   0  0  0  0  0  0  0  0  0  0  0  0
    2.7104   -1.5694    0.0000 O   0  0  0  0  0  0  0  0  0  0  0  0
    1.4058   -1.6745    0.0000 O   0  0  0  0  0  0  0  0  0  0  0  0
   -2.1457   -5.3780    0.0000 O   0  0  0  0  0  0  0  0  0  0  0  0
   -1.5421   -2.3015    0.0000 C   0  0  0  0  0  0  0  0  0  0  0  0
    4.2798   -8.2753    0.0000 N   0  0  0  0  0  0  0  0  0  0  0  0
    0.0039   -4.9651    0.0000 O   0  0  0  0  0  0  0  0  0  0  0  0
   -1.9588   -1.5888    0.0000 C   0  0  0  0  0  0  0  0  0  0  0  0
    3.2595   -8.9762    0.0000 O   0  0  0  0  0  0  0  0  0  0  0  0
   -0.7204   -2.3015    0.0000 C   0  0  0  0  0  0  0  0  0  0  0  0
   -2.1457   -4.5562    0.0000 O   0  0  0  0  0  0  0  0  0  0  0  0
   -2.1457   -6.1918    0.0000 C   0  0  0  0  0  0  0  0  0  0  0  0
    1.4292   -7.4458    0.0000 C   0  0  0  0  0  0  0  0  0  0  0  0
    2.1496   -6.2074    0.0000 C   0  0  0  0  0  0  0  0  0  0  0  0
    0.3685   -5.3771    0.0000 C   0  0  0  0  0  0  0  0  0  0  0  0
    2.2664   -8.8477    0.0000 C   0  0  0  0  0  0  0  0  0  0  0  0
    4.6614    1.3629    0.0000 C   0  0  0  0  0  0  0  0  0  0  0  0
    5.6350   -0.2921    0.0000 C   0  0  0  0  0  0  0  0  0  0  0  0
    4.5485   -1.5227    0.0000 C   0  0  0  0  0  0  0  0  0  0  0  0
    3.0531    1.0047    0.0000 C   0  0  0  0  0  0  0  0  0  0  0  0
   -1.4253   -4.1396    0.0000 C   0  0  0  0  0  0  0  0  0  0  0  0
   -1.4330   -6.6163    0.0000 C   0  0  0  0  0  0  0  0  0  0  0  0
    4.2798   -6.6280    0.0000 C   0  0  0  0  0  0  0  0  0  0  0  0
    0.7126   -2.2937    0.0000 C   0  0  0  0  0  0  0  0  0  0  0  0
    4.3499   -1.8459    0.0000 C   0  0  0  0  0  0  0  0  0  0  0  0
    3.1349   -1.3474    0.0000 C   0  0  0  0  0  0  0  0  0  0  0  0
    5.0041   -4.5368    0.0000 C   0  0  0  0  0  0  0  0  0  0  0  0
    2.8428   -9.6889    0.0000 C   0  0  0  0  0  0  0  0  0  0  0  0
   -1.4447   -7.4341    0.0000 C   0  0  0  0  0  0  0  0  0  0  0  0
    5.8998   -1.0670    0.0000 C   0  0  0  0  0  0  0  0  0  0  0  0
    4.1045    1.9704    0.0000 C   0  0  0  0  0  0  0  0  0  0  0  0
    3.2984    1.7874    0.0000 C   0  0  0  0  0  0  0  0  0  0  0  0
    5.3546   -1.6862    0.0000 C   0  0  0  0  0  0  0  0  0  0  0  0
  2  1  1  0
  3  8  1  0
  4  5  1  0
  5  3  1  0
  6 25  1  0
  7 13  1  6
  8  7  1  0
  9  4  1  0
 10 36  1  0
 11  7  1  0
 12  1  1  0
  2 13  1  1
 14 17  2  0
 15 18  2  0
 16 22  1  0
 17 10  1  0
 18 10  1  0
 19 34  1  0
 20 31  1  6
 21 27  1  0
 22 20  1  0
 23  2  1  0
 24 20  1  0
 25  9  1  0
 26 32  1  0
 27 33  1  0
 28 11  1  0
 29 30  1  0
  1 30  1  6
  3 31  1  1
 32 24  1  0
 33 19  1  0
 34 28  1  0
 35 12  1  0
 36 40  1  0
 12 37  1  1
 38  4  2  0
 39 35  1  0
 40 29  1  0
 41 29  2  0
  6 42  1  1
 43 48  1  0
 26 44  1  1
 11 45  1  6
 46 43  2  0
 16 47  1  6
 48 19  1  0
 21 49  1  6
  6 50  1  0
  5 51  1  1
  8 52  1  1
 11 53  1  0
 16 54  1  0
 55 14  1  0
 56 15  1  0
 57 18  1  0
 58 17  1  0
 27 59  1  6
 25 60  1  1
 32 61  1  1
 34 62  1  6
 63 37  1  0
 64 37  1  0
 39 65  1  1
 66 47  1  0
 67 60  1  0
 68 71  1  0
 69 70  1  0
 70 58  2  0
 71 57  2  0
 39 23  1  0
 14 15  1  0
 56 68  2  0
 69 55  2  0
  6 21  1  0
 26 16  1  0
M  END

> <chembl_id>
CHEMBL438813

> <chembl_pref_name>
None


$$$$

     RDKit          2D

 71 76  0  0  1  0  0  0  0  0999 V2000
    2.8506   -3.3101    0.0000 C   0  0  0  0  0  0  0  0  0  0  0  0
    2.8623   -4.1396    0.0000 C   0  0  0  0  0  0  0  0  0  0  0  0
    0.7166   -6.2074    0.0000 C   0  0  0  0  0  0  0  0  0  0  0  0
    0.0039   -7.4458    0.0000 C   0  0  0  0  0  0  0  0  0  0  0  0
    0.7166   -7.0369    0.0000 C   0  0  0  0  0  0  0  0  0  0  0  0
   -1.4253   -5.7985    0.0000 C   0  0  0  0  0  0  0  0  0  0  0  0
    2.8506   -8.2636    0.0000 C   0  0  0  0  0  0  0  0  0  0  0  0
    1.4292   -4.9691    0.0000 C   0  0  0  0  0  0  0  0  0  0  0  0
    1.4292   -5.7985    0.0000 C   0  0  0  0  0  0  0  0  0  0  0  0
   -0.7087   -7.0369    0.0000 O   0  0  0  0  0  0  0  0  0  0  0  0
    3.5321   -0.4128    0.0000 C   0  0  0  0  0  0  0  0  0  0  0  0
    3.5632   -2.8895    0.0000 C   0  0  0  0  0  0  0  0  0  0  0  0
    0.7166   -4.5602    0.0000 C   0  0  0  0  0  0  0  0  0  0  0  0
    2.1496   -4.5602    0.0000 O   0  0  0  0  0  0  0  0  0  0  0  0
    4.4083    0.5802    0.0000 C   0  0  0  0  0  0  0  0  0  0  0  0
    4.8366   -0.1285    0.0000 C   0  0  0  0  0  0  0  0  0  0  0  0
    3.6099    0.4050    0.0000 C   0  0  0  0  0  0  0  0  0  0  0  0
    4.2875   -0.7399    0.0000 C   0  0  0  0  0  0  0  0  0  0  0  0
    3.5671   -7.8624    0.0000 C   0  0  0  0  0  0  0  0  0  0  0  0
   -0.2998   -3.0181    0.0000 N   0  0  0  0  0  0  0  0  0  0  0  0
    2.1419   -7.0330    0.0000 C   0  0  0  0  0  0  0  0  0  0  0  0
    2.1419   -7.8547    0.0000 C   0  0  0  0  0  0  0  0  0  0  0  0
    2.8545   -6.6163    0.0000 O   0  0  0  0  0  0  0  0  0  0  0  0
    3.5671   -7.0369    0.0000 C   0  0  0  0  0  0  0  0  0  0  0  0
   -1.4253   -4.9691    0.0000 C   0  0  0  0  0  0  0  0  0  0  0  0
    3.5788   -4.5446    0.0000 O   0  0  0  0  0  0  0  0  0  0  0  0
   -0.7087   -6.2074    0.0000 C   0  0  0  0  0  0  0  0  0  0  0  0
   -0.7087   -4.5602    0.0000 C   0  0  0  0  0  0  0  0  0  0  0  0
    0.7166   -3.7307    0.0000 C   0  0  0  0  0  0  0  0  0  0  0  0
    2.1185   -2.0795    0.0000 C   0  0  0  0  0  0  0  0  0  0  0  0
    2.1302   -2.9012    0.0000 O   0  0  0  0  0  0  0  0  0  0  0  0
    1.4292   -6.6163    0.0000 O   0  0  0  0  0  0  0  0  0  0  0  0
   -0.7087   -3.7307    0.0000 C   0  0  0  0  0  0  0  0  0  0  0  0
    0.3037   -3.0141    0.0000 C   0  0  0  0  0  0  0  0  0  0  0  0
    4.2798   -3.2984    0.0000 C   0  0  0  0  0  0  0  0  0  0  0  0
    2.8272   -0.8334    0.0000 C   0  0  0  0  0  0  0  0  0  0  0  0
    3.5515   -2.0678    0.0000 N   0  0  0  0  0  0  0  0  0  0  0  0
    4.2798   -8.2753    0.0000 N   0  0  0  0  0  0  0  0  0  0  0  0
    0.0039   -8.2753    0.0000 O   0  0  0  0  0  0  0  0  0  0  0  0
    4.2875   -4.1279    0.0000 C   0  0  0  0  0  0  0  0  0  0  0  0
    2.7104   -1.5694    0.0000 O   0  0  0  0  0  0  0  0  0  0  0  0
    1.4058   -1.6745    0.0000 O   0  0  0  0  0  0  0  0  0  0  0  0
   -2.1457   -5.3780    0.0000 O   0  0  0  0  0  0  0  0  0  0  0  0
    3.2595   -8.9762    0.0000 O   0  0  0  0  0  0  0  0  0  0  0  0
    0.0039   -4.9651    0.0000 O   0  0  0  0  0  0  0  0  0  0  0  0
   -2.1457   -4.5562    0.0000 O   0  0  0  0  0  0  0  0  0  0  0  0
   -2.1457   -6.1918    0.0000 C   0  0  0  0  0  0  0  0  0  0  0  0
    2.2664   -8.8477    0.0000 C   0  0  0  0  0  0  0  0  0  0  0  0
    1.4292   -7.4458    0.0000 C   0  0  0  0  0  0  0  0  0  0  0  0
    2.1496   -6.2074    0.0000 C   0  0  0  0  0  0  0  0  0  0  0  0
   -0.7204   -2.3015    0.0000 C   0  0  0  0  0  0  0  0  0  0  0  0
    0.4864   -5.4066    0.0000 C   0  0  0  0  0  0  0  0  0  0  0  0
    5.6350   -0.2921    0.0000 C   0  0  0  0  0  0  0  0  0  0  0  0
    4.6614    1.3629    0.0000 C   0  0  0  0  0  0  0  0  0  0  0  0
    3.0531    1.0047    0.0000 C   0  0  0  0  0  0  0  0  0  0  0  0
    4.5485   -1.5227    0.0000 C   0  0  0  0  0  0  0  0  0  0  0  0
    4.2798   -6.6280    0.0000 C   0  0  0  0  0  0  0  0  0  0  0  0
   -1.4253   -4.1396    0.0000 C   0  0  0  0  0  0  0  0  0  0  0  0
   -1.4330   -6.6163    0.0000 C   0  0  0  0  0  0  0  0  0  0  0  0
    0.7126   -2.2937    0.0000 C   0  0  0  0  0  0  0  0  0  0  0  0
    3.1349   -1.3474    0.0000 C   0  0  0  0  0  0  0  0  0  0  0  0
    4.3499   -1.8459    0.0000 C   0  0  0  0  0  0  0  0  0  0  0  0
    4.9924   -7.8664    0.0000 C   0  0  0  0  0  0  0  0  0  0  0  0
    4.2759   -9.1047    0.0000 C   0  0  0  0  0  0  0  0  0  0  0  0
    5.0041   -4.5368    0.0000 C   0  0  0  0  0  0  0  0  0  0  0  0
    2.8428   -9.6889    0.0000 C   0  0  0  0  0  0  0  0  0  0  0  0
   -1.4447   -7.4341    0.0000 C   0  0  0  0  0  0  0  0  0  0  0  0
    4.1045    1.9704    0.0000 C   0  0  0  0  0  0  0  0  0  0  0  0
    3.2984    1.7874    0.0000 C   0  0  0  0  0  0  0  0  0  0  0  0
    5.3546   -1.6862    0.0000 C   0  0  0  0  0  0  0  0  0  0  0  0
    5.8998   -1.0670    0.0000 C   0  0  0  0  0  0  0  0  0  0  0  0
  2  1  1  0
  3  9  1  0
  4  5  1  0
  5  3  1  0
  6 27  1  0
  7 22  1  0
  8 14  1  6
  9  8  1  0
 10  4  1  0
 11 36  1  0
 12  1  1  0
 13  8  1  0
  2 14  1  1
 15 17  2  0
 16 18  2  0
 17 11  1  0
 18 11  1  0
 19 24  1  0
 20 34  1  0
 21 32  1  6
 22 21  1  0
 23 21  1  0
 24 23  1  0
 25 28  1  0
 26  2  1  0
 27 10  1  0
 28 33  1  0
 29 13  1  0
 30 31  1  0
  1 31  1  6
  3 32  1  1
 33 20  1  0
 34 29  1  0
 35 12  1  0
 36 41  1  0
 12 37  1  1
 19 38  1  1
 39  4  2  0
 40 35  1  0
 41 30  1  0
 42 30  2  0
  6 43  1  1
  7 44  1  6
 13 45  1  6
 25 46  1  6
  6 47  1  0
  7 48  1  0
  5 49  1  1
  9 50  1  1
 51 20  1  0
 13 52  1  0
 53 16  1  0
 54 15  1  0
 55 17  1  0
 56 18  1  0
 24 57  1  1
 28 58  1  6
 27 59  1  1
 34 60  1  6
 61 37  1  0
 62 37  1  0
 63 38  1  0
 64 38  1  0
 40 65  1  1
 66 44  1  0
 67 59  1  0
 68 69  1  0
 69 55  2  0
 70 56  2  0
 71 70  1  0
 40 26  1  0
 15 16  1  0
 53 71  2  0
 68 54  2  0
  6 25  1  0
 19  7  1  0
M  END

> <chembl_id>
CHEMBL218028

> <chembl_pref_name>
None


$$$$

     RDKit          2D

 72 77  0  0  1  0  0  0  0  0999 V2000
    2.8505   -3.3100    0.0000 C   0  0  0  0  0  0  0  0  0  0  0  0
    2.8622   -4.1395    0.0000 C   0  0  0  0  0  0  0  0  0  0  0  0
    0.7165   -6.2072    0.0000 C   0  0  0  0  0  0  0  0  0  0  0  0
    0.0039   -7.4456    0.0000 C   0  0  0  0  0  0  0  0  0  0  0  0
    0.7165   -7.0367    0.0000 C   0  0  0  0  0  0  0  0  0  0  0  0
   -1.4252   -5.7984    0.0000 C   0  0  0  0  0  0  0  0  0  0  0  0
    1.4292   -4.9689    0.0000 C   0  0  0  0  0  0  0  0  0  0  0  0
    1.4292   -5.7984    0.0000 C   0  0  0  0  0  0  0  0  0  0  0  0
   -0.7087   -7.0367    0.0000 O   0  0  0  0  0  0  0  0  0  0  0  0
    3.5670   -7.8622    0.0000 C   0  0  0  0  0  0  0  0  0  0  0  0
    3.5320   -0.4128    0.0000 C   0  0  0  0  0  0  0  0  0  0  0  0
    2.8505   -8.2633    0.0000 C   0  0  0  0  0  0  0  0  0  0  0  0
    0.7165   -4.5600    0.0000 C   0  0  0  0  0  0  0  0  0  0  0  0
    3.5631   -2.8895    0.0000 C   0  0  0  0  0  0  0  0  0  0  0  0
    2.1495   -4.5600    0.0000 O   0  0  0  0  0  0  0  0  0  0  0  0
    4.4082    0.5802    0.0000 C   0  0  0  0  0  0  0  0  0  0  0  0
    4.8365   -0.1285    0.0000 C   0  0  0  0  0  0  0  0  0  0  0  0
    3.6098    0.4050    0.0000 C   0  0  0  0  0  0  0  0  0  0  0  0
    4.2874   -0.7399    0.0000 C   0  0  0  0  0  0  0  0  0  0  0  0
   -0.2998   -3.0180    0.0000 N   0  0  0  0  0  0  0  0  0  0  0  0
    2.1418   -7.0328    0.0000 C   0  0  0  0  0  0  0  0  0  0  0  0
   -1.4252   -4.9689    0.0000 C   0  0  0  0  0  0  0  0  0  0  0  0
    2.1418   -7.8545    0.0000 C   0  0  0  0  0  0  0  0  0  0  0  0
    3.5787   -4.5444    0.0000 O   0  0  0  0  0  0  0  0  0  0  0  0
    2.8544   -6.6161    0.0000 O   0  0  0  0  0  0  0  0  0  0  0  0
   -0.7087   -6.2072    0.0000 C   0  0  0  0  0  0  0  0  0  0  0  0
   -0.7087   -4.5600    0.0000 C   0  0  0  0  0  0  0  0  0  0  0  0
    0.7165   -3.7306    0.0000 C   0  0  0  0  0  0  0  0  0  0  0  0
    2.1184   -2.0795    0.0000 C   0  0  0  0  0  0  0  0  0  0  0  0
    3.5670   -7.0367    0.0000 C   0  0  0  0  0  0  0  0  0  0  0  0
    2.1301   -2.9011    0.0000 O   0  0  0  0  0  0  0  0  0  0  0  0
    4.2797   -8.2750    0.0000 N   0  0  0  0  0  0  0  0  0  0  0  0
    1.4292   -6.6161    0.0000 O   0  0  0  0  0  0  0  0  0  0  0  0
   -0.7087   -3.7306    0.0000 C   0  0  0  0  0  0  0  0  0  0  0  0
    0.3037   -3.0140    0.0000 C   0  0  0  0  0  0  0  0  0  0  0  0
    4.2797   -3.2983    0.0000 C   0  0  0  0  0  0  0  0  0  0  0  0
    2.8271   -0.8334    0.0000 C   0  0  0  0  0  0  0  0  0  0  0  0
    4.9923   -7.8661    0.0000 C   0  0  0  0  0  0  0  0  0  0  0  0
    3.5514   -2.0678    0.0000 N   0  0  0  0  0  0  0  0  0  0  0  0
    0.0039   -8.2750    0.0000 O   0  0  0  0  0  0  0  0  0  0  0  0
    4.2874   -4.1278    0.0000 C   0  0  0  0  0  0  0  0  0  0  0  0
    2.7103   -1.5694    0.0000 O   0  0  0  0  0  0  0  0  0  0  0  0
    1.4058   -1.6745    0.0000 O   0  0  0  0  0  0  0  0  0  0  0  0
    5.0000   -7.0444    0.0000 O   0  0  0  0  0  0  0  0  0  0  0  0
   -2.1456   -5.3778    0.0000 O   0  0  0  0  0  0  0  0  0  0  0  0
    0.0039   -4.9650    0.0000 O   0  0  0  0  0  0  0  0  0  0  0  0
    3.2594   -8.9760    0.0000 O   0  0  0  0  0  0  0  0  0  0  0  0
   -2.1456   -4.5561    0.0000 O   0  0  0  0  0  0  0  0  0  0  0  0
   -2.1456   -6.1916    0.0000 C   0  0  0  0  0  0  0  0  0  0  0  0
    1.4292   -7.4456    0.0000 C   0  0  0  0  0  0  0  0  0  0  0  0
    2.1495   -6.2072    0.0000 C   0  0  0  0  0  0  0  0  0  0  0  0
   -0.7204   -2.3014    0.0000 C   0  0  0  0  0  0  0  0  0  0  0  0
    2.2664   -8.8475    0.0000 C   0  0  0  0  0  0  0  0  0  0  0  0
    0.5158   -5.4654    0.0000 C   0  0  0  0  0  0  0  0  0  0  0  0
    5.6348   -0.2921    0.0000 C   0  0  0  0  0  0  0  0  0  0  0  0
    4.6613    1.3629    0.0000 C   0  0  0  0  0  0  0  0  0  0  0  0
    3.0530    1.0047    0.0000 C   0  0  0  0  0  0  0  0  0  0  0  0
    4.5484   -1.5226    0.0000 C   0  0  0  0  0  0  0  0  0  0  0  0
   -1.4252   -4.1395    0.0000 C   0  0  0  0  0  0  0  0  0  0  0  0
   -1.4330   -6.6161    0.0000 C   0  0  0  0  0  0  0  0  0  0  0  0
    4.2797   -6.6278    0.0000 C   0  0  0  0  0  0  0  0  0  0  0  0
    0.7126   -2.2937    0.0000 C   0  0  0  0  0  0  0  0  0  0  0  0
    5.7049   -8.2828    0.0000 C   0  0  0  0  0  0  0  0  0  0  0  0
    4.3498   -1.8458    0.0000 C   0  0  0  0  0  0  0  0  0  0  0  0
    3.1348   -1.3474    0.0000 C   0  0  0  0  0  0  0  0  0  0  0  0
    5.0040   -4.5367    0.0000 C   0  0  0  0  0  0  0  0  0  0  0  0
    2.8427   -9.6886    0.0000 C   0  0  0  0  0  0  0  0  0  0  0  0
   -1.4447   -7.4339    0.0000 C   0  0  0  0  0  0  0  0  0  0  0  0
    3.2983    1.7874    0.0000 C   0  0  0  0  0  0  0  0  0  0  0  0
    5.3544   -1.6862    0.0000 C   0  0  0  0  0  0  0  0  0  0  0  0
    5.8996   -1.0670    0.0000 C   0  0  0  0  0  0  0  0  0  0  0  0
    4.1044    1.9704    0.0000 C   0  0  0  0  0  0  0  0  0  0  0  0
  2  1  1  0
  3  8  1  0
  4  5  1  0
  5  3  1  0
  6 26  1  0
  7 15  1  6
  8  7  1  0
  9  4  1  0
 10 30  1  0
 11 37  1  0
 12 23  1  0
 13  7  1  0
 14  1  1  0
  2 15  1  1
 16 18  2  0
 17 19  2  0
 18 11  1  0
 19 11  1  0
 20 35  1  0
 21 33  1  6
 22 27  1  0
 23 21  1  0
 24  2  1  0
 25 21  1  0
 26  9  1  0
 27 34  1  0
 28 13  1  0
 29 31  1  0
 30 25  1  0
  1 31  1  6
 10 32  1  1
  3 33  1  1
 34 20  1  0
 35 28  1  0
 36 14  1  0
 37 42  1  0
 38 32  1  0
 14 39  1  1
 40  4  2  0
 41 36  1  0
 42 29  1  0
 43 29  2  0
 44 38  2  0
  6 45  1  1
 13 46  1  6
 12 47  1  6
 22 48  1  6
  6 49  1  0
  5 50  1  1
  8 51  1  1
 52 20  1  0
 12 53  1  0
 13 54  1  0
 55 17  1  0
 56 16  1  0
 57 18  1  0
 58 19  1  0
 27 59  1  6
 26 60  1  1
 30 61  1  1
 35 62  1  6
 63 38  1  0
 64 39  1  0
 65 39  1  0
 41 66  1  1
 67 47  1  0
 68 60  1  0
 69 57  2  0
 70 58  2  0
 71 70  1  0
 72 69  1  0
 41 24  1  0
 16 17  1  0
 55 71  2  0
 72 56  2  0
 10 12  1  0
  6 22  1  0
M  END

> <chembl_id>
CHEMBL383857

> <chembl_pref_name>
None


$$$$

     RDKit          2D

 73 79  0  0  1  0  0  0  0  0999 V2000
    2.8505   -3.3100    0.0000 C   0  0  0  0  0  0  0  0  0  0  0  0
    2.8622   -4.1395    0.0000 C   0  0  0  0  0  0  0  0  0  0  0  0
    0.7165   -6.2072    0.0000 C   0  0  0  0  0  0  0  0  0  0  0  0
    0.0039   -7.4456    0.0000 C   0  0  0  0  0  0  0  0  0  0  0  0
    0.7165   -7.0367    0.0000 C   0  0  0  0  0  0  0  0  0  0  0  0
    2.8505   -8.2633    0.0000 C   0  0  0  0  0  0  0  0  0  0  0  0
   -1.4252   -5.7984    0.0000 C   0  0  0  0  0  0  0  0  0  0  0  0
    1.4292   -4.9689    0.0000 C   0  0  0  0  0  0  0  0  0  0  0  0
    1.4292   -5.7984    0.0000 C   0  0  0  0  0  0  0  0  0  0  0  0
    3.5670   -7.8622    0.0000 C   0  0  0  0  0  0  0  0  0  0  0  0
   -0.7087   -7.0367    0.0000 O   0  0  0  0  0  0  0  0  0  0  0  0
    3.5320   -0.4128    0.0000 C   0  0  0  0  0  0  0  0  0  0  0  0
    0.7165   -4.5600    0.0000 C   0  0  0  0  0  0  0  0  0  0  0  0
    3.5631   -2.8895    0.0000 C   0  0  0  0  0  0  0  0  0  0  0  0
    2.1495   -4.5600    0.0000 O   0  0  0  0  0  0  0  0  0  0  0  0
    4.4082    0.5802    0.0000 C   0  0  0  0  0  0  0  0  0  0  0  0
    4.8365   -0.1285    0.0000 C   0  0  0  0  0  0  0  0  0  0  0  0
    3.6098    0.4050    0.0000 C   0  0  0  0  0  0  0  0  0  0  0  0
    4.2874   -0.7399    0.0000 C   0  0  0  0  0  0  0  0  0  0  0  0
   -0.2998   -3.0180    0.0000 N   0  0  0  0  0  0  0  0  0  0  0  0
    2.1418   -7.0328    0.0000 C   0  0  0  0  0  0  0  0  0  0  0  0
    4.2797   -8.2750    0.0000 N   0  0  0  0  0  0  0  0  0  0  0  0
    2.1418   -7.8545    0.0000 C   0  0  0  0  0  0  0  0  0  0  0  0
    2.8544   -6.6161    0.0000 O   0  0  0  0  0  0  0  0  0  0  0  0
    3.5670   -7.0367    0.0000 C   0  0  0  0  0  0  0  0  0  0  0  0
   -1.4252   -4.9689    0.0000 C   0  0  0  0  0  0  0  0  0  0  0  0
    3.5787   -4.5444    0.0000 O   0  0  0  0  0  0  0  0  0  0  0  0
   -0.7087   -6.2072    0.0000 C   0  0  0  0  0  0  0  0  0  0  0  0
   -0.7087   -4.5600    0.0000 C   0  0  0  0  0  0  0  0  0  0  0  0
    0.7165   -3.7306    0.0000 C   0  0  0  0  0  0  0  0  0  0  0  0
    2.1184   -2.0795    0.0000 C   0  0  0  0  0  0  0  0  0  0  0  0
    2.1301   -2.9011    0.0000 O   0  0  0  0  0  0  0  0  0  0  0  0
    1.4292   -6.6161    0.0000 O   0  0  0  0  0  0  0  0  0  0  0  0
   -0.7087   -3.7306    0.0000 C   0  0  0  0  0  0  0  0  0  0  0  0
    0.3037   -3.0140    0.0000 C   0  0  0  0  0  0  0  0  0  0  0  0
    4.2797   -3.2983    0.0000 C   0  0  0  0  0  0  0  0  0  0  0  0
    2.8271   -0.8334    0.0000 C   0  0  0  0  0  0  0  0  0  0  0  0
    3.5514   -2.0678    0.0000 N   0  0  0  0  0  0  0  0  0  0  0  0
    0.0039   -8.2750    0.0000 O   0  0  0  0  0  0  0  0  0  0  0  0
    4.3614   -9.0928    0.0000 C   0  0  0  0  0  0  0  0  0  0  0  0
    5.0351   -7.9440    0.0000 C   0  0  0  0  0  0  0  0  0  0  0  0
    4.2874   -4.1278    0.0000 C   0  0  0  0  0  0  0  0  0  0  0  0
    2.7103   -1.5694    0.0000 O   0  0  0  0  0  0  0  0  0  0  0  0
    1.4058   -1.6745    0.0000 O   0  0  0  0  0  0  0  0  0  0  0  0
    5.5842   -8.5554    0.0000 C   0  0  0  0  0  0  0  0  0  0  0  0
    5.1675   -9.2758    0.0000 C   0  0  0  0  0  0  0  0  0  0  0  0
   -2.1456   -5.3778    0.0000 O   0  0  0  0  0  0  0  0  0  0  0  0
    3.2594   -8.9760    0.0000 O   0  0  0  0  0  0  0  0  0  0  0  0
    0.0039   -4.9650    0.0000 O   0  0  0  0  0  0  0  0  0  0  0  0
   -2.1456   -4.5561    0.0000 O   0  0  0  0  0  0  0  0  0  0  0  0
   -2.1456   -6.1916    0.0000 C   0  0  0  0  0  0  0  0  0  0  0  0
    2.2664   -8.8475    0.0000 C   0  0  0  0  0  0  0  0  0  0  0  0
    1.4292   -7.4456    0.0000 C   0  0  0  0  0  0  0  0  0  0  0  0
    2.1495   -6.2072    0.0000 C   0  0  0  0  0  0  0  0  0  0  0  0
   -0.7204   -2.3014    0.0000 C   0  0  0  0  0  0  0  0  0  0  0  0
    0.4274   -5.4654    0.0000 C   0  0  0  0  0  0  0  0  0  0  0  0
    5.6348   -0.2921    0.0000 C   0  0  0  0  0  0  0  0  0  0  0  0
    4.6613    1.3629    0.0000 C   0  0  0  0  0  0  0  0  0  0  0  0
    3.0530    1.0047    0.0000 C   0  0  0  0  0  0  0  0  0  0  0  0
    4.5484   -1.5226    0.0000 C   0  0  0  0  0  0  0  0  0  0  0  0
    4.2797   -6.6278    0.0000 C   0  0  0  0  0  0  0  0  0  0  0  0
   -1.4252   -4.1395    0.0000 C   0  0  0  0  0  0  0  0  0  0  0  0
   -1.4330   -6.6161    0.0000 C   0  0  0  0  0  0  0  0  0  0  0  0
    0.7126   -2.2937    0.0000 C   0  0  0  0  0  0  0  0  0  0  0  0
    3.1348   -1.3474    0.0000 C   0  0  0  0  0  0  0  0  0  0  0  0
    4.3498   -1.8458    0.0000 C   0  0  0  0  0  0  0  0  0  0  0  0
    5.0040   -4.5367    0.0000 C   0  0  0  0  0  0  0  0  0  0  0  0
    2.8427   -9.6886    0.0000 C   0  0  0  0  0  0  0  0  0  0  0  0
   -1.4447   -7.4339    0.0000 C   0  0  0  0  0  0  0  0  0  0  0  0
    5.3544   -1.6862    0.0000 C   0  0  0  0  0  0  0  0  0  0  0  0
    5.8996   -1.0670    0.0000 C   0  0  0  0  0  0  0  0  0  0  0  0
    4.1044    1.9704    0.0000 C   0  0  0  0  0  0  0  0  0  0  0  0
    3.2983    1.7874    0.0000 C   0  0  0  0  0  0  0  0  0  0  0  0
  2  1  1  0
  3  9  1  0
  4  5  1  0
  5  3  1  0
  6 23  1  0
  7 28  1  0
  8 15  1  6
  9  8  1  0
 10 25  1  0
 11  4  1  0
 12 37  1  0
 13  8  1  0
 14  1  1  0
  2 15  1  1
 16 18  2  0
 17 19  2  0
 18 12  1  0
 19 12  1  0
 20 35  1  0
 21 33  1  6
 10 22  1  1
 23 21  1  0
 24 21  1  0
 25 24  1  0
 26 29  1  0
 27  2  1  0
 28 11  1  0
 29 34  1  0
 30 13  1  0
 31 32  1  0
  1 32  1  6
  3 33  1  1
 34 20  1  0
 35 30  1  0
 36 14  1  0
 37 43  1  0
 14 38  1  1
 39  4  2  0
 40 22  1  0
 41 22  1  0
 42 36  1  0
 43 31  1  0
 44 31  2  0
 45 41  2  0
 46 40  2  0
  7 47  1  1
  6 48  1  6
 13 49  1  6
 26 50  1  6
  7 51  1  0
  6 52  1  0
  5 53  1  1
  9 54  1  1
 55 20  1  0
 13 56  1  0
 57 17  1  0
 58 16  1  0
 59 18  1  0
 60 19  1  0
 25 61  1  1
 29 62  1  6
 28 63  1  1
 35 64  1  6
 65 38  1  0
 66 38  1  0
 42 67  1  1
 68 48  1  0
 69 63  1  0
 70 60  2  0
 71 70  1  0
 72 73  1  0
 73 59  2  0
 42 27  1  0
 16 17  1  0
 57 71  2  0
 72 58  2  0
  7 26  1  0
 10  6  1  0
 45 46  1  0
M  END

> <chembl_id>
CHEMBL439173

> <chembl_pref_name>
None


$$$$

     RDKit          2D

 72 77  0  0  1  0  0  0  0  0999 V2000
    2.8505   -3.3100    0.0000 C   0  0  0  0  0  0  0  0  0  0  0  0
    2.8622   -4.1395    0.0000 C   0  0  0  0  0  0  0  0  0  0  0  0
    0.7165   -6.2072    0.0000 C   0  0  0  0  0  0  0  0  0  0  0  0
    0.0039   -7.4456    0.0000 C   0  0  0  0  0  0  0  0  0  0  0  0
    0.7165   -7.0367    0.0000 C   0  0  0  0  0  0  0  0  0  0  0  0
   -1.4252   -5.7984    0.0000 C   0  0  0  0  0  0  0  0  0  0  0  0
    1.4292   -4.9689    0.0000 C   0  0  0  0  0  0  0  0  0  0  0  0
    1.4292   -5.7984    0.0000 C   0  0  0  0  0  0  0  0  0  0  0  0
   -0.7087   -7.0367    0.0000 O   0  0  0  0  0  0  0  0  0  0  0  0
    3.5670   -7.8622    0.0000 C   0  0  0  0  0  0  0  0  0  0  0  0
    3.5320   -0.4128    0.0000 C   0  0  0  0  0  0  0  0  0  0  0  0
    2.8505   -8.2633    0.0000 C   0  0  0  0  0  0  0  0  0  0  0  0
    0.7165   -4.5600    0.0000 C   0  0  0  0  0  0  0  0  0  0  0  0
    3.5631   -2.8895    0.0000 C   0  0  0  0  0  0  0  0  0  0  0  0
    2.1495   -4.5600    0.0000 O   0  0  0  0  0  0  0  0  0  0  0  0
    4.4082    0.5802    0.0000 C   0  0  0  0  0  0  0  0  0  0  0  0
    4.8365   -0.1285    0.0000 C   0  0  0  0  0  0  0  0  0  0  0  0
    3.6098    0.4050    0.0000 C   0  0  0  0  0  0  0  0  0  0  0  0
    4.2874   -0.7399    0.0000 C   0  0  0  0  0  0  0  0  0  0  0  0
   -0.2998   -3.0180    0.0000 N   0  0  0  0  0  0  0  0  0  0  0  0
    2.1418   -7.0328    0.0000 C   0  0  0  0  0  0  0  0  0  0  0  0
   -1.4252   -4.9689    0.0000 C   0  0  0  0  0  0  0  0  0  0  0  0
    2.1418   -7.8545    0.0000 C   0  0  0  0  0  0  0  0  0  0  0  0
    3.5787   -4.5444    0.0000 O   0  0  0  0  0  0  0  0  0  0  0  0
    2.8544   -6.6161    0.0000 O   0  0  0  0  0  0  0  0  0  0  0  0
   -0.7087   -6.2072    0.0000 C   0  0  0  0  0  0  0  0  0  0  0  0
   -0.7087   -4.5600    0.0000 C   0  0  0  0  0  0  0  0  0  0  0  0
    0.7165   -3.7306    0.0000 C   0  0  0  0  0  0  0  0  0  0  0  0
    2.1184   -2.0795    0.0000 C   0  0  0  0  0  0  0  0  0  0  0  0
    3.5670   -7.0367    0.0000 C   0  0  0  0  0  0  0  0  0  0  0  0
    2.1301   -2.9011    0.0000 O   0  0  0  0  0  0  0  0  0  0  0  0
    4.2797   -8.2750    0.0000 N   0  0  0  0  0  0  0  0  0  0  0  0
    1.4292   -6.6161    0.0000 O   0  0  0  0  0  0  0  0  0  0  0  0
   -0.7087   -3.7306    0.0000 C   0  0  0  0  0  0  0  0  0  0  0  0
    0.3037   -3.0140    0.0000 C   0  0  0  0  0  0  0  0  0  0  0  0
    4.2797   -3.2983    0.0000 C   0  0  0  0  0  0  0  0  0  0  0  0
    2.8271   -0.8334    0.0000 C   0  0  0  0  0  0  0  0  0  0  0  0
    4.9923   -7.8661    0.0000 C   0  0  0  0  0  0  0  0  0  0  0  0
    3.5514   -2.0678    0.0000 N   0  0  0  0  0  0  0  0  0  0  0  0
    0.0039   -8.2750    0.0000 O   0  0  0  0  0  0  0  0  0  0  0  0
    4.2874   -4.1278    0.0000 C   0  0  0  0  0  0  0  0  0  0  0  0
    2.7103   -1.5694    0.0000 O   0  0  0  0  0  0  0  0  0  0  0  0
    1.4058   -1.6745    0.0000 O   0  0  0  0  0  0  0  0  0  0  0  0
    5.0000   -7.0444    0.0000 O   0  0  0  0  0  0  0  0  0  0  0  0
   -2.1456   -5.3778    0.0000 O   0  0  0  0  0  0  0  0  0  0  0  0
    0.0039   -4.9650    0.0000 O   0  0  0  0  0  0  0  0  0  0  0  0
    3.2594   -8.9760    0.0000 O   0  0  0  0  0  0  0  0  0  0  0  0
   -2.1456   -4.5561    0.0000 O   0  0  0  0  0  0  0  0  0  0  0  0
   -2.1456   -6.1916    0.0000 C   0  0  0  0  0  0  0  0  0  0  0  0
    1.4292   -7.4456    0.0000 C   0  0  0  0  0  0  0  0  0  0  0  0
    2.1495   -6.2072    0.0000 C   0  0  0  0  0  0  0  0  0  0  0  0
   -0.7204   -2.3014    0.0000 C   0  0  0  0  0  0  0  0  0  0  0  0
    2.2664   -8.8475    0.0000 C   0  0  0  0  0  0  0  0  0  0  0  0
    0.4568   -5.4948    0.0000 C   0  0  0  0  0  0  0  0  0  0  0  0
    5.6348   -0.2921    0.0000 C   0  0  0  0  0  0  0  0  0  0  0  0
    4.6613    1.3629    0.0000 C   0  0  0  0  0  0  0  0  0  0  0  0
    3.0530    1.0047    0.0000 C   0  0  0  0  0  0  0  0  0  0  0  0
    4.5484   -1.5226    0.0000 C   0  0  0  0  0  0  0  0  0  0  0  0
   -1.4252   -4.1395    0.0000 C   0  0  0  0  0  0  0  0  0  0  0  0
   -1.4330   -6.6161    0.0000 C   0  0  0  0  0  0  0  0  0  0  0  0
    4.2797   -6.6278    0.0000 C   0  0  0  0  0  0  0  0  0  0  0  0
    0.7126   -2.2937    0.0000 C   0  0  0  0  0  0  0  0  0  0  0  0
    5.7049   -8.2828    0.0000 C   0  0  0  0  0  0  0  0  0  0  0  0
    4.3498   -1.8458    0.0000 C   0  0  0  0  0  0  0  0  0  0  0  0
    3.1348   -1.3474    0.0000 C   0  0  0  0  0  0  0  0  0  0  0  0
    5.0040   -4.5367    0.0000 C   0  0  0  0  0  0  0  0  0  0  0  0
    2.8427   -9.6886    0.0000 C   0  0  0  0  0  0  0  0  0  0  0  0
   -1.4447   -7.4339    0.0000 C   0  0  0  0  0  0  0  0  0  0  0  0
    3.2983    1.7874    0.0000 C   0  0  0  0  0  0  0  0  0  0  0  0
    5.3544   -1.6862    0.0000 C   0  0  0  0  0  0  0  0  0  0  0  0
    5.8996   -1.0670    0.0000 C   0  0  0  0  0  0  0  0  0  0  0  0
    4.1044    1.9704    0.0000 C   0  0  0  0  0  0  0  0  0  0  0  0
  2  1  1  0
  3  8  1  0
  4  5  1  0
  5  3  1  0
  6 26  1  0
  7 15  1  6
  8  7  1  0
  9  4  1  0
 10 30  1  0
 11 37  1  0
 12 23  1  0
 13  7  1  0
 14  1  1  0
  2 15  1  1
 16 18  2  0
 17 19  2  0
 18 11  1  0
 19 11  1  0
 20 35  1  0
 21 33  1  6
 22 27  1  0
 23 21  1  0
 24  2  1  0
 25 21  1  0
 26  9  1  0
 27 34  1  0
 28 13  1  0
 29 31  1  0
 30 25  1  0
  1 31  1  6
 10 32  1  6
  3 33  1  1
 34 20  1  0
 35 28  1  0
 36 14  1  0
 37 42  1  0
 38 32  1  0
 14 39  1  1
 40  4  2  0
 41 36  1  0
 42 29  1  0
 43 29  2  0
 44 38  2  0
  6 45  1  1
 13 46  1  6
 12 47  1  6
 22 48  1  6
  6 49  1  0
  5 50  1  1
  8 51  1  1
 52 20  1  0
 12 53  1  0
 13 54  1  0
 55 17  1  0
 56 16  1  0
 57 18  1  0
 58 19  1  0
 27 59  1  6
 26 60  1  1
 30 61  1  1
 35 62  1  6
 63 38  1  0
 64 39  1  0
 65 39  1  0
 41 66  1  1
 67 47  1  0
 68 60  1  0
 69 57  2  0
 70 58  2  0
 71 70  1  0
 72 69  1  0
 41 24  1  0
 16 17  1  0
 55 71  2  0
 72 56  2  0
 10 12  1  0
  6 22  1  0
M  END

> <chembl_id>
CHEMBL217503

> <chembl_pref_name>
None


$$$$

     RDKit          2D

 69 74  0  0  1  0  0  0  0  0999 V2000
    2.8506   -3.3101    0.0000 C   0  0  0  0  0  0  0  0  0  0  0  0
    2.8623   -4.1396    0.0000 C   0  0  0  0  0  0  0  0  0  0  0  0
    0.7166   -6.2074    0.0000 C   0  0  0  0  0  0  0  0  0  0  0  0
    0.0039   -7.4458    0.0000 C   0  0  0  0  0  0  0  0  0  0  0  0
    0.7166   -7.0369    0.0000 C   0  0  0  0  0  0  0  0  0  0  0  0
   -1.4253   -5.7985    0.0000 C   0  0  0  0  0  0  0  0  0  0  0  0
    1.4292   -4.9691    0.0000 C   0  0  0  0  0  0  0  0  0  0  0  0
    1.4292   -5.7985    0.0000 C   0  0  0  0  0  0  0  0  0  0  0  0
   -0.7087   -7.0369    0.0000 O   0  0  0  0  0  0  0  0  0  0  0  0
    3.5321   -0.4128    0.0000 C   0  0  0  0  0  0  0  0  0  0  0  0
    0.7166   -4.5602    0.0000 C   0  0  0  0  0  0  0  0  0  0  0  0
    3.5632   -2.8895    0.0000 C   0  0  0  0  0  0  0  0  0  0  0  0
    2.1496   -4.5602    0.0000 O   0  0  0  0  0  0  0  0  0  0  0  0
    4.4083    0.5802    0.0000 C   0  0  0  0  0  0  0  0  0  0  0  0
    4.8366   -0.1285    0.0000 C   0  0  0  0  0  0  0  0  0  0  0  0
    2.8506   -8.2636    0.0000 C   0  0  0  0  0  0  0  0  0  0  0  0
    3.6099    0.4050    0.0000 C   0  0  0  0  0  0  0  0  0  0  0  0
    4.2875   -0.7399    0.0000 C   0  0  0  0  0  0  0  0  0  0  0  0
   -0.2998   -3.0181    0.0000 N   0  0  0  0  0  0  0  0  0  0  0  0
    2.1419   -7.0330    0.0000 C   0  0  0  0  0  0  0  0  0  0  0  0
   -1.4253   -4.9691    0.0000 C   0  0  0  0  0  0  0  0  0  0  0  0
    2.1419   -7.8547    0.0000 C   0  0  0  0  0  0  0  0  0  0  0  0
    3.5788   -4.5446    0.0000 O   0  0  0  0  0  0  0  0  0  0  0  0
    2.8545   -6.6163    0.0000 O   0  0  0  0  0  0  0  0  0  0  0  0
   -0.7087   -6.2074    0.0000 C   0  0  0  0  0  0  0  0  0  0  0  0
    3.5671   -7.8624    0.0000 C   0  0  0  0  0  0  0  0  0  0  0  0
   -0.7087   -4.5602    0.0000 C   0  0  0  0  0  0  0  0  0  0  0  0
    0.7166   -3.7307    0.0000 C   0  0  0  0  0  0  0  0  0  0  0  0
    2.1185   -2.0795    0.0000 C   0  0  0  0  0  0  0  0  0  0  0  0
    2.1302   -2.9012    0.0000 O   0  0  0  0  0  0  0  0  0  0  0  0
    1.4292   -6.6163    0.0000 O   0  0  0  0  0  0  0  0  0  0  0  0
    3.5671   -7.0369    0.0000 C   0  0  0  0  0  0  0  0  0  0  0  0
   -0.7087   -3.7307    0.0000 C   0  0  0  0  0  0  0  0  0  0  0  0
    0.3037   -3.0141    0.0000 C   0  0  0  0  0  0  0  0  0  0  0  0
    4.2798   -3.2984    0.0000 C   0  0  0  0  0  0  0  0  0  0  0  0
    2.8272   -0.8334    0.0000 C   0  0  0  0  0  0  0  0  0  0  0  0
    3.5515   -2.0678    0.0000 N   0  0  0  0  0  0  0  0  0  0  0  0
    0.0039   -8.2753    0.0000 O   0  0  0  0  0  0  0  0  0  0  0  0
    4.2875   -4.1279    0.0000 C   0  0  0  0  0  0  0  0  0  0  0  0
    2.7104   -1.5694    0.0000 O   0  0  0  0  0  0  0  0  0  0  0  0
    1.4058   -1.6745    0.0000 O   0  0  0  0  0  0  0  0  0  0  0  0
   -2.1457   -5.3780    0.0000 O   0  0  0  0  0  0  0  0  0  0  0  0
    4.2798   -8.2753    0.0000 N   0  0  0  0  0  0  0  0  0  0  0  0
    0.0039   -4.9651    0.0000 O   0  0  0  0  0  0  0  0  0  0  0  0
    3.2595   -8.9762    0.0000 O   0  0  0  0  0  0  0  0  0  0  0  0
   -2.1457   -4.5562    0.0000 O   0  0  0  0  0  0  0  0  0  0  0  0
   -2.1457   -6.1918    0.0000 C   0  0  0  0  0  0  0  0  0  0  0  0
    1.4292   -7.4458    0.0000 C   0  0  0  0  0  0  0  0  0  0  0  0
    2.1496   -6.2074    0.0000 C   0  0  0  0  0  0  0  0  0  0  0  0
   -0.7204   -2.3015    0.0000 C   0  0  0  0  0  0  0  0  0  0  0  0
    0.5158   -5.4066    0.0000 C   0  0  0  0  0  0  0  0  0  0  0  0
    2.2664   -8.8477    0.0000 C   0  0  0  0  0  0  0  0  0  0  0  0
    4.6614    1.3629    0.0000 C   0  0  0  0  0  0  0  0  0  0  0  0
    5.6350   -0.2921    0.0000 C   0  0  0  0  0  0  0  0  0  0  0  0
    4.5485   -1.5227    0.0000 C   0  0  0  0  0  0  0  0  0  0  0  0
    3.0531    1.0047    0.0000 C   0  0  0  0  0  0  0  0  0  0  0  0
   -1.4253   -4.1396    0.0000 C   0  0  0  0  0  0  0  0  0  0  0  0
   -1.4330   -6.6163    0.0000 C   0  0  0  0  0  0  0  0  0  0  0  0
    4.2798   -6.6280    0.0000 C   0  0  0  0  0  0  0  0  0  0  0  0
    0.7126   -2.2937    0.0000 C   0  0  0  0  0  0  0  0  0  0  0  0
    4.3499   -1.8459    0.0000 C   0  0  0  0  0  0  0  0  0  0  0  0
    3.1349   -1.3474    0.0000 C   0  0  0  0  0  0  0  0  0  0  0  0
    5.0041   -4.5368    0.0000 C   0  0  0  0  0  0  0  0  0  0  0  0
    2.8428   -9.6889    0.0000 C   0  0  0  0  0  0  0  0  0  0  0  0
   -1.4447   -7.4341    0.0000 C   0  0  0  0  0  0  0  0  0  0  0  0
    3.2984    1.7874    0.0000 C   0  0  0  0  0  0  0  0  0  0  0  0
    5.3546   -1.6862    0.0000 C   0  0  0  0  0  0  0  0  0  0  0  0
    5.8998   -1.0670    0.0000 C   0  0  0  0  0  0  0  0  0  0  0  0
    4.1045    1.9704    0.0000 C   0  0  0  0  0  0  0  0  0  0  0  0
  2  1  1  0
  3  8  1  0
  4  5  1  0
  5  3  1  0
  6 25  1  0
  7 13  1  6
  8  7  1  0
  9  4  1  0
 10 36  1  0
 11  7  1  0
 12  1  1  0
  2 13  1  1
 14 17  2  0
 15 18  2  0
 16 22  1  0
 17 10  1  0
 18 10  1  0
 19 34  1  0
 20 31  1  6
 21 27  1  0
 22 20  1  0
 23  2  1  0
 24 20  1  0
 25  9  1  0
 26 32  1  0
 27 33  1  0
 28 11  1  0
 29 30  1  0
  1 30  1  6
  3 31  1  1
 32 24  1  0
 33 19  1  0
 34 28  1  0
 35 12  1  0
 36 40  1  0
 12 37  1  1
 38  4  2  0
 39 35  1  0
 40 29  1  0
 41 29  2  0
  6 42  1  1
 26 43  1  1
 11 44  1  6
 16 45  1  6
 21 46  1  6
  6 47  1  0
  5 48  1  1
  8 49  1  1
 50 19  1  0
 11 51  1  0
 16 52  1  0
 53 14  1  0
 54 15  1  0
 55 18  1  0
 56 17  1  0
 27 57  1  6
 25 58  1  1
 32 59  1  1
 34 60  1  6
 61 37  1  0
 62 37  1  0
 39 63  1  1
 64 45  1  0
 65 58  1  0
 66 56  2  0
 67 55  2  0
 68 67  1  0
 69 66  1  0
 39 23  1  0
 14 15  1  0
 54 68  2  0
 69 53  2  0
  6 21  1  0
 26 16  1  0
M  END

> <chembl_id>
CHEMBL387403

> <chembl_pref_name>
None


$$$$

     RDKit          2D

 69 74  0  0  1  0  0  0  0  0999 V2000
    2.8506   -3.3101    0.0000 C   0  0  0  0  0  0  0  0  0  0  0  0
    2.8623   -4.1396    0.0000 C   0  0  0  0  0  0  0  0  0  0  0  0
    0.7166   -6.2074    0.0000 C   0  0  0  0  0  0  0  0  0  0  0  0
    0.0039   -7.4458    0.0000 C   0  0  0  0  0  0  0  0  0  0  0  0
    0.7166   -7.0369    0.0000 C   0  0  0  0  0  0  0  0  0  0  0  0
   -1.4253   -5.7985    0.0000 C   0  0  0  0  0  0  0  0  0  0  0  0
    1.4292   -4.9691    0.0000 C   0  0  0  0  0  0  0  0  0  0  0  0
    1.4292   -5.7985    0.0000 C   0  0  0  0  0  0  0  0  0  0  0  0
   -0.7087   -7.0369    0.0000 O   0  0  0  0  0  0  0  0  0  0  0  0
    3.5321   -0.4128    0.0000 C   0  0  0  0  0  0  0  0  0  0  0  0
    0.7166   -4.5602    0.0000 C   0  0  0  0  0  0  0  0  0  0  0  0
    3.5632   -2.8895    0.0000 C   0  0  0  0  0  0  0  0  0  0  0  0
    2.1496   -4.5602    0.0000 O   0  0  0  0  0  0  0  0  0  0  0  0
    4.4083    0.5802    0.0000 C   0  0  0  0  0  0  0  0  0  0  0  0
    4.8366   -0.1285    0.0000 C   0  0  0  0  0  0  0  0  0  0  0  0
    2.8506   -8.2636    0.0000 C   0  0  0  0  0  0  0  0  0  0  0  0
    3.6099    0.4050    0.0000 C   0  0  0  0  0  0  0  0  0  0  0  0
    4.2875   -0.7399    0.0000 C   0  0  0  0  0  0  0  0  0  0  0  0
   -0.2998   -3.0181    0.0000 N   0  0  0  0  0  0  0  0  0  0  0  0
    2.1419   -7.0330    0.0000 C   0  0  0  0  0  0  0  0  0  0  0  0
   -1.4253   -4.9691    0.0000 C   0  0  0  0  0  0  0  0  0  0  0  0
    2.1419   -7.8547    0.0000 C   0  0  0  0  0  0  0  0  0  0  0  0
    3.5788   -4.5446    0.0000 O   0  0  0  0  0  0  0  0  0  0  0  0
    2.8545   -6.6163    0.0000 O   0  0  0  0  0  0  0  0  0  0  0  0
   -0.7087   -6.2074    0.0000 C   0  0  0  0  0  0  0  0  0  0  0  0
    3.5671   -7.8624    0.0000 C   0  0  0  0  0  0  0  0  0  0  0  0
   -0.7087   -4.5602    0.0000 C   0  0  0  0  0  0  0  0  0  0  0  0
    0.7166   -3.7307    0.0000 C   0  0  0  0  0  0  0  0  0  0  0  0
    2.1185   -2.0795    0.0000 C   0  0  0  0  0  0  0  0  0  0  0  0
    2.1302   -2.9012    0.0000 O   0  0  0  0  0  0  0  0  0  0  0  0
    1.4292   -6.6163    0.0000 O   0  0  0  0  0  0  0  0  0  0  0  0
    3.5671   -7.0369    0.0000 C   0  0  0  0  0  0  0  0  0  0  0  0
   -0.7087   -3.7307    0.0000 C   0  0  0  0  0  0  0  0  0  0  0  0
    0.3037   -3.0141    0.0000 C   0  0  0  0  0  0  0  0  0  0  0  0
    4.2798   -3.2984    0.0000 C   0  0  0  0  0  0  0  0  0  0  0  0
    2.8272   -0.8334    0.0000 C   0  0  0  0  0  0  0  0  0  0  0  0
    3.5515   -2.0678    0.0000 N   0  0  0  0  0  0  0  0  0  0  0  0
    0.0039   -8.2753    0.0000 O   0  0  0  0  0  0  0  0  0  0  0  0
    4.2875   -4.1279    0.0000 C   0  0  0  0  0  0  0  0  0  0  0  0
    2.7104   -1.5694    0.0000 O   0  0  0  0  0  0  0  0  0  0  0  0
    1.4058   -1.6745    0.0000 O   0  0  0  0  0  0  0  0  0  0  0  0
   -2.1457   -5.3780    0.0000 O   0  0  0  0  0  0  0  0  0  0  0  0
    4.2798   -8.2753    0.0000 N   0  0  0  0  0  0  0  0  0  0  0  0
    0.0039   -4.9651    0.0000 O   0  0  0  0  0  0  0  0  0  0  0  0
    3.2595   -8.9762    0.0000 O   0  0  0  0  0  0  0  0  0  0  0  0
   -2.1457   -4.5562    0.0000 O   0  0  0  0  0  0  0  0  0  0  0  0
   -2.1457   -6.1918    0.0000 C   0  0  0  0  0  0  0  0  0  0  0  0
    1.4292   -7.4458    0.0000 C   0  0  0  0  0  0  0  0  0  0  0  0
    2.1496   -6.2074    0.0000 C   0  0  0  0  0  0  0  0  0  0  0  0
   -0.7204   -2.3015    0.0000 C   0  0  0  0  0  0  0  0  0  0  0  0
    0.4569   -5.4360    0.0000 C   0  0  0  0  0  0  0  0  0  0  0  0
    2.2664   -8.8477    0.0000 C   0  0  0  0  0  0  0  0  0  0  0  0
    4.6614    1.3629    0.0000 C   0  0  0  0  0  0  0  0  0  0  0  0
    5.6350   -0.2921    0.0000 C   0  0  0  0  0  0  0  0  0  0  0  0
    4.5485   -1.5227    0.0000 C   0  0  0  0  0  0  0  0  0  0  0  0
    3.0531    1.0047    0.0000 C   0  0  0  0  0  0  0  0  0  0  0  0
   -1.4253   -4.1396    0.0000 C   0  0  0  0  0  0  0  0  0  0  0  0
   -1.4330   -6.6163    0.0000 C   0  0  0  0  0  0  0  0  0  0  0  0
    4.2798   -6.6280    0.0000 C   0  0  0  0  0  0  0  0  0  0  0  0
    0.7126   -2.2937    0.0000 C   0  0  0  0  0  0  0  0  0  0  0  0
    4.3499   -1.8459    0.0000 C   0  0  0  0  0  0  0  0  0  0  0  0
    3.1349   -1.3474    0.0000 C   0  0  0  0  0  0  0  0  0  0  0  0
    5.0041   -4.5368    0.0000 C   0  0  0  0  0  0  0  0  0  0  0  0
    2.8428   -9.6889    0.0000 C   0  0  0  0  0  0  0  0  0  0  0  0
   -1.4447   -7.4341    0.0000 C   0  0  0  0  0  0  0  0  0  0  0  0
    3.2984    1.7874    0.0000 C   0  0  0  0  0  0  0  0  0  0  0  0
    5.3546   -1.6862    0.0000 C   0  0  0  0  0  0  0  0  0  0  0  0
    5.8998   -1.0670    0.0000 C   0  0  0  0  0  0  0  0  0  0  0  0
    4.1045    1.9704    0.0000 C   0  0  0  0  0  0  0  0  0  0  0  0
  2  1  1  0
  3  8  1  0
  4  5  1  0
  5  3  1  0
  6 25  1  0
  7 13  1  6
  8  7  1  0
  9  4  1  0
 10 36  1  0
 11  7  1  0
 12  1  1  0
  2 13  1  1
 14 17  2  0
 15 18  2  0
 16 22  1  0
 17 10  1  0
 18 10  1  0
 19 34  1  0
 20 31  1  6
 21 27  1  0
 22 20  1  0
 23  2  1  0
 24 20  1  0
 25  9  1  0
 26 32  1  0
 27 33  1  0
 28 11  1  0
 29 30  1  0
  1 30  1  6
  3 31  1  1
 32 24  1  0
 33 19  1  0
 34 28  1  0
 35 12  1  0
 36 40  1  0
 12 37  1  1
 38  4  2  0
 39 35  1  0
 40 29  1  0
 41 29  2  0
  6 42  1  1
 26 43  1  6
 11 44  1  6
 16 45  1  6
 21 46  1  6
  6 47  1  0
  5 48  1  1
  8 49  1  1
 50 19  1  0
 11 51  1  0
 16 52  1  0
 53 14  1  0
 54 15  1  0
 55 18  1  0
 56 17  1  0
 27 57  1  6
 25 58  1  1
 32 59  1  1
 34 60  1  6
 61 37  1  0
 62 37  1  0
 39 63  1  1
 64 45  1  0
 65 58  1  0
 66 56  2  0
 67 55  2  0
 68 67  1  0
 69 66  1  0
 39 23  1  0
 14 15  1  0
 54 68  2  0
 69 53  2  0
  6 21  1  0
 26 16  1  0
M  END

> <chembl_id>
CHEMBL218076

> <chembl_pref_name>
None


$$$$

     RDKit          2D

 54 56  0  0  1  0  0  0  0  0999 V2000
    2.6246   -1.6229    0.0000 C   0  0  0  0  0  0  0  0  0  0  0  0
    0.4892   -3.6845    0.0000 C   0  0  0  0  0  0  0  0  0  0  0  0
   -0.2290   -4.9191    0.0000 C   0  0  0  0  0  0  0  0  0  0  0  0
    0.4892   -4.5115    0.0000 C   0  0  0  0  0  0  0  0  0  0  0  0
    2.6129   -0.7959    0.0000 C   0  0  0  0  0  0  0  0  0  0  0  0
   -1.6500   -3.2769    0.0000 C   0  0  0  0  0  0  0  0  0  0  0  0
    1.1997   -2.4499    0.0000 C   0  0  0  0  0  0  0  0  0  0  0  0
    1.1997   -3.2769    0.0000 C   0  0  0  0  0  0  0  0  0  0  0  0
   -0.9395   -4.5115    0.0000 O   0  0  0  0  0  0  0  0  0  0  0  0
    0.4892   -2.0422    0.0000 C   0  0  0  0  0  0  0  0  0  0  0  0
    1.9141   -2.0422    0.0000 O   0  0  0  0  0  0  0  0  0  0  0  0
    2.6129   -5.7345    0.0000 C   0  0  0  0  0  0  0  0  0  0  0  0
    3.3234   -0.3766    0.0000 C   0  0  0  0  0  0  0  0  0  0  0  0
   -0.5319   -0.5048    0.0000 N   0  0  0  0  0  0  0  0  0  0  0  0
    1.9102   -4.5076    0.0000 C   0  0  0  0  0  0  0  0  0  0  0  0
   -1.6500   -2.4499    0.0000 C   0  0  0  0  0  0  0  0  0  0  0  0
    1.9025   -5.3268    0.0000 C   0  0  0  0  0  0  0  0  0  0  0  0
    3.3351   -2.0267    0.0000 O   0  0  0  0  0  0  0  0  0  0  0  0
    2.6129   -4.0922    0.0000 O   0  0  0  0  0  0  0  0  0  0  0  0
   -0.9395   -3.6845    0.0000 C   0  0  0  0  0  0  0  0  0  0  0  0
    3.3234   -5.3345    0.0000 C   0  0  0  0  0  0  0  0  0  0  0  0
   -0.9395   -2.0422    0.0000 C   0  0  0  0  0  0  0  0  0  0  0  0
    0.4892   -1.2153    0.0000 C   0  0  0  0  0  0  0  0  0  0  0  0
    1.1997   -4.0922    0.0000 O   0  0  0  0  0  0  0  0  0  0  0  0
    3.3234   -4.5115    0.0000 C   0  0  0  0  0  0  0  0  0  0  0  0
   -0.9395   -1.2153    0.0000 C   0  0  0  0  0  0  0  0  0  0  0  0
    0.0738   -0.5008    0.0000 C   0  0  0  0  0  0  0  0  0  0  0  0
    4.0417   -0.7843    0.0000 C   0  0  0  0  0  0  0  0  0  0  0  0
    3.3195    0.4426    0.0000 N   0  0  0  0  0  0  0  0  0  0  0  0
   -0.2290   -5.7461    0.0000 O   0  0  0  0  0  0  0  0  0  0  0  0
    4.0456   -1.6113    0.0000 C   0  0  0  0  0  0  0  0  0  0  0  0
   -2.3644   -2.8575    0.0000 O   0  0  0  0  0  0  0  0  0  0  0  0
    1.8908   -0.3883    0.0000 O   0  0  0  0  0  0  0  0  0  0  0  0
    4.0339   -5.7461    0.0000 N   0  0  0  0  0  0  0  0  0  0  0  0
   -0.2290   -2.4460    0.0000 O   0  0  0  0  0  0  0  0  0  0  0  0
    3.0206   -6.4450    0.0000 O   0  0  0  0  0  0  0  0  0  0  0  0
   -2.3644   -2.0383    0.0000 O   0  0  0  0  0  0  0  0  0  0  0  0
   -2.3644   -3.6690    0.0000 C   0  0  0  0  0  0  0  0  0  0  0  0
    1.1997   -4.9191    0.0000 C   0  0  0  0  0  0  0  0  0  0  0  0
   -0.9434    0.2097    0.0000 C   0  0  0  0  0  0  0  0  0  0  0  0
    1.9141   -3.6845    0.0000 C   0  0  0  0  0  0  0  0  0  0  0  0
    0.1390   -2.8899    0.0000 C   0  0  0  0  0  0  0  0  0  0  0  0
    2.0306   -6.3168    0.0000 C   0  0  0  0  0  0  0  0  0  0  0  0
   -1.6500   -1.6229    0.0000 C   0  0  0  0  0  0  0  0  0  0  0  0
   -1.6617   -4.0922    0.0000 C   0  0  0  0  0  0  0  0  0  0  0  0
    4.0417   -4.1038    0.0000 C   0  0  0  0  0  0  0  0  0  0  0  0
    0.4815    0.2174    0.0000 C   0  0  0  0  0  0  0  0  0  0  0  0
    4.0300    0.8580    0.0000 C   0  0  0  0  0  0  0  0  0  0  0  0
    2.6013    0.8503    0.0000 C   0  0  0  0  0  0  0  0  0  0  0  0
    4.7638   -2.0189    0.0000 C   0  0  0  0  0  0  0  0  0  0  0  0
    2.6013   -7.1555    0.0000 C   0  0  0  0  0  0  0  0  0  0  0  0
   -0.5358    0.9279    0.0000 C   0  0  0  0  0  0  0  0  0  0  0  0
   -1.6656   -4.9075    0.0000 C   0  0  0  0  0  0  0  0  0  0  0  0
   -0.9512    1.6384    0.0000 C   0  0  0  0  0  0  0  0  0  0  0  0
  2  8  1  0
  3  4  1  0
  4  2  1  0
  5  1  1  0
  6 20  1  0
  7 11  1  6
  8  7  1  0
  9  3  1  0
 10  7  1  0
  1 11  1  1
 12 17  1  0
 13  5  1  0
 14 27  1  0
 15 24  1  6
 16 22  1  0
 17 15  1  0
 18  1  1  0
 19 15  1  0
 20  9  1  0
 21 25  1  0
 22 26  1  0
 23 10  1  0
  2 24  1  1
 25 19  1  0
 26 14  1  0
 27 23  1  0
 28 31  1  0
 13 29  1  1
 30  3  2  0
 31 18  1  0
  6 32  1  1
  5 33  1  6
 21 34  1  0
 10 35  1  6
 12 36  1  6
 16 37  1  6
  6 38  1  0
  4 39  1  1
 40 14  1  0
  8 41  1  1
 10 42  1  0
 12 43  1  0
 22 44  1  6
 20 45  1  1
 25 46  1  1
 27 47  1  6
 48 29  1  0
 49 29  1  0
 31 50  1  1
 51 36  1  0
 52 40  1  0
 53 45  1  0
 54 52  1  0
 28 13  1  0
  6 16  1  0
 21 12  1  0
M  END

> <chembl_id>
CHEMBL13546

> <chembl_pref_name>
None


$$$$

     RDKit          2D

 54 56  0  0  1  0  0  0  0  0999 V2000
    2.6246   -1.6229    0.0000 C   0  0  0  0  0  0  0  0  0  0  0  0
    0.4892   -3.6845    0.0000 C   0  0  0  0  0  0  0  0  0  0  0  0
   -0.2290   -4.9191    0.0000 C   0  0  0  0  0  0  0  0  0  0  0  0
    0.4892   -4.5115    0.0000 C   0  0  0  0  0  0  0  0  0  0  0  0
    2.6129   -0.7959    0.0000 C   0  0  0  0  0  0  0  0  0  0  0  0
   -1.6500   -3.2769    0.0000 C   0  0  0  0  0  0  0  0  0  0  0  0
    1.1997   -2.4499    0.0000 C   0  0  0  0  0  0  0  0  0  0  0  0
    1.1997   -3.2769    0.0000 C   0  0  0  0  0  0  0  0  0  0  0  0
   -0.9395   -4.5115    0.0000 O   0  0  0  0  0  0  0  0  0  0  0  0
    0.4892   -2.0422    0.0000 C   0  0  0  0  0  0  0  0  0  0  0  0
    1.9141   -2.0422    0.0000 O   0  0  0  0  0  0  0  0  0  0  0  0
    2.6129   -5.7345    0.0000 C   0  0  0  0  0  0  0  0  0  0  0  0
    3.3234   -0.3766    0.0000 C   0  0  0  0  0  0  0  0  0  0  0  0
   -0.5319   -0.5048    0.0000 N   0  0  0  0  0  0  0  0  0  0  0  0
    1.9102   -4.5076    0.0000 C   0  0  0  0  0  0  0  0  0  0  0  0
   -1.6500   -2.4499    0.0000 C   0  0  0  0  0  0  0  0  0  0  0  0
    1.9025   -5.3268    0.0000 C   0  0  0  0  0  0  0  0  0  0  0  0
    3.3351   -2.0267    0.0000 O   0  0  0  0  0  0  0  0  0  0  0  0
    2.6129   -4.0922    0.0000 O   0  0  0  0  0  0  0  0  0  0  0  0
   -0.9395   -3.6845    0.0000 C   0  0  0  0  0  0  0  0  0  0  0  0
    3.3234   -5.3345    0.0000 C   0  0  0  0  0  0  0  0  0  0  0  0
   -0.9395   -2.0422    0.0000 C   0  0  0  0  0  0  0  0  0  0  0  0
    0.4892   -1.2153    0.0000 C   0  0  0  0  0  0  0  0  0  0  0  0
    1.1997   -4.0922    0.0000 O   0  0  0  0  0  0  0  0  0  0  0  0
    3.3234   -4.5115    0.0000 C   0  0  0  0  0  0  0  0  0  0  0  0
   -0.9395   -1.2153    0.0000 C   0  0  0  0  0  0  0  0  0  0  0  0
    0.0738   -0.5008    0.0000 C   0  0  0  0  0  0  0  0  0  0  0  0
    4.0417   -0.7843    0.0000 C   0  0  0  0  0  0  0  0  0  0  0  0
    3.3195    0.4426    0.0000 N   0  0  0  0  0  0  0  0  0  0  0  0
   -0.2290   -5.7461    0.0000 O   0  0  0  0  0  0  0  0  0  0  0  0
    4.0456   -1.6113    0.0000 C   0  0  0  0  0  0  0  0  0  0  0  0
   -2.3644   -2.8575    0.0000 O   0  0  0  0  0  0  0  0  0  0  0  0
    1.8908   -0.3883    0.0000 O   0  0  0  0  0  0  0  0  0  0  0  0
   -0.5358    0.9279    0.0000 C   0  0  0  0  0  0  0  0  0  0  0  0
    4.0339   -5.7461    0.0000 N   0  0  0  0  0  0  0  0  0  0  0  0
   -0.2290   -2.4460    0.0000 O   0  0  0  0  0  0  0  0  0  0  0  0
   -0.9512    1.6384    0.0000 C   0  0  0  0  0  0  0  0  0  0  0  0
    3.0206   -6.4450    0.0000 O   0  0  0  0  0  0  0  0  0  0  0  0
   -0.9434    0.2097    0.0000 C   0  0  0  0  0  0  0  0  0  0  0  0
   -2.3644   -2.0383    0.0000 O   0  0  0  0  0  0  0  0  0  0  0  0
   -2.3644   -3.6690    0.0000 C   0  0  0  0  0  0  0  0  0  0  0  0
    1.1997   -4.9191    0.0000 C   0  0  0  0  0  0  0  0  0  0  0  0
    1.9141   -3.6845    0.0000 C   0  0  0  0  0  0  0  0  0  0  0  0
    0.1979   -2.9783    0.0000 C   0  0  0  0  0  0  0  0  0  0  0  0
    2.0306   -6.3168    0.0000 C   0  0  0  0  0  0  0  0  0  0  0  0
   -1.6500   -1.6229    0.0000 C   0  0  0  0  0  0  0  0  0  0  0  0
   -1.6617   -4.0922    0.0000 C   0  0  0  0  0  0  0  0  0  0  0  0
    4.0417   -4.1038    0.0000 C   0  0  0  0  0  0  0  0  0  0  0  0
    0.4815    0.2174    0.0000 C   0  0  0  0  0  0  0  0  0  0  0  0
    4.0300    0.8580    0.0000 C   0  0  0  0  0  0  0  0  0  0  0  0
    2.6013    0.8503    0.0000 C   0  0  0  0  0  0  0  0  0  0  0  0
    4.7638   -2.0189    0.0000 C   0  0  0  0  0  0  0  0  0  0  0  0
    2.6013   -7.1555    0.0000 C   0  0  0  0  0  0  0  0  0  0  0  0
   -1.6656   -4.9075    0.0000 C   0  0  0  0  0  0  0  0  0  0  0  0
  2  8  1  0
  3  4  1  0
  4  2  1  0
  5  1  1  0
  6 20  1  0
  7 11  1  6
  8  7  1  0
  9  3  1  0
 10  7  1  0
  1 11  1  1
 12 17  1  0
 13  5  1  0
 14 27  1  0
 15 24  1  6
 16 22  1  0
 17 15  1  0
 18  1  1  0
 19 15  1  0
 20  9  1  0
 21 25  1  0
 22 26  1  0
 23 10  1  0
  2 24  1  1
 25 19  1  0
 26 14  1  0
 27 23  1  0
 28 31  1  0
 13 29  1  1
 30  3  2  0
 31 18  1  0
  6 32  1  1
  5 33  1  6
 34 39  1  0
 21 35  1  0
 10 36  1  6
 37 34  2  0
 12 38  1  6
 39 14  1  0
 16 40  1  6
  6 41  1  0
  4 42  1  1
  8 43  1  1
 10 44  1  0
 12 45  1  0
 22 46  1  6
 20 47  1  1
 25 48  1  1
 27 49  1  6
 50 29  1  0
 51 29  1  0
 31 52  1  1
 53 38  1  0
 54 47  1  0
 28 13  1  0
  6 16  1  0
 21 12  1  0
M  END

> <chembl_id>
CHEMBL269195

> <chembl_pref_name>
None


$$$$

     RDKit          2D

 52 54  0  0  1  0  0  0  0  0999 V2000
    2.6246   -1.6229    0.0000 C   0  0  0  0  0  0  0  0  0  0  0  0
    0.4892   -3.6845    0.0000 C   0  0  0  0  0  0  0  0  0  0  0  0
   -0.2290   -4.9191    0.0000 C   0  0  0  0  0  0  0  0  0  0  0  0
    0.4892   -4.5115    0.0000 C   0  0  0  0  0  0  0  0  0  0  0  0
    2.6129   -0.7959    0.0000 C   0  0  0  0  0  0  0  0  0  0  0  0
   -1.6500   -3.2769    0.0000 C   0  0  0  0  0  0  0  0  0  0  0  0
    1.1997   -2.4499    0.0000 C   0  0  0  0  0  0  0  0  0  0  0  0
    1.1997   -3.2769    0.0000 C   0  0  0  0  0  0  0  0  0  0  0  0
   -0.9395   -4.5115    0.0000 O   0  0  0  0  0  0  0  0  0  0  0  0
    0.4892   -2.0422    0.0000 C   0  0  0  0  0  0  0  0  0  0  0  0
    1.9141   -2.0422    0.0000 O   0  0  0  0  0  0  0  0  0  0  0  0
    2.6129   -5.7345    0.0000 C   0  0  0  0  0  0  0  0  0  0  0  0
    3.3234   -0.3766    0.0000 C   0  0  0  0  0  0  0  0  0  0  0  0
   -0.5319   -0.5048    0.0000 N   0  0  0  0  0  0  0  0  0  0  0  0
    1.9102   -4.5076    0.0000 C   0  0  0  0  0  0  0  0  0  0  0  0
   -1.6500   -2.4499    0.0000 C   0  0  0  0  0  0  0  0  0  0  0  0
    1.9025   -5.3268    0.0000 C   0  0  0  0  0  0  0  0  0  0  0  0
    3.3351   -2.0267    0.0000 O   0  0  0  0  0  0  0  0  0  0  0  0
    2.6129   -4.0922    0.0000 O   0  0  0  0  0  0  0  0  0  0  0  0
   -0.9395   -3.6845    0.0000 C   0  0  0  0  0  0  0  0  0  0  0  0
    3.3234   -5.3345    0.0000 C   0  0  0  0  0  0  0  0  0  0  0  0
   -0.9395   -2.0422    0.0000 C   0  0  0  0  0  0  0  0  0  0  0  0
    0.4892   -1.2153    0.0000 C   0  0  0  0  0  0  0  0  0  0  0  0
    1.1997   -4.0922    0.0000 O   0  0  0  0  0  0  0  0  0  0  0  0
    3.3234   -4.5115    0.0000 C   0  0  0  0  0  0  0  0  0  0  0  0
   -0.9395   -1.2153    0.0000 C   0  0  0  0  0  0  0  0  0  0  0  0
    0.0738   -0.5008    0.0000 C   0  0  0  0  0  0  0  0  0  0  0  0
    4.0417   -0.7843    0.0000 C   0  0  0  0  0  0  0  0  0  0  0  0
    3.3195    0.4426    0.0000 N   0  0  0  0  0  0  0  0  0  0  0  0
   -0.2290   -5.7461    0.0000 O   0  0  0  0  0  0  0  0  0  0  0  0
    4.0456   -1.6113    0.0000 C   0  0  0  0  0  0  0  0  0  0  0  0
   -2.3644   -2.8575    0.0000 O   0  0  0  0  0  0  0  0  0  0  0  0
    1.8908   -0.3883    0.0000 O   0  0  0  0  0  0  0  0  0  0  0  0
    4.0339   -5.7461    0.0000 N   0  0  0  0  0  0  0  0  0  0  0  0
   -0.2290   -2.4460    0.0000 O   0  0  0  0  0  0  0  0  0  0  0  0
    3.0206   -6.4450    0.0000 O   0  0  0  0  0  0  0  0  0  0  0  0
   -2.3644   -2.0383    0.0000 O   0  0  0  0  0  0  0  0  0  0  0  0
   -2.3644   -3.6690    0.0000 C   0  0  0  0  0  0  0  0  0  0  0  0
    1.1997   -4.9191    0.0000 C   0  0  0  0  0  0  0  0  0  0  0  0
    1.9141   -3.6845    0.0000 C   0  0  0  0  0  0  0  0  0  0  0  0
   -0.9434    0.2097    0.0000 C   0  0  0  0  0  0  0  0  0  0  0  0
    0.1979   -2.9783    0.0000 C   0  0  0  0  0  0  0  0  0  0  0  0
    2.0306   -6.3168    0.0000 C   0  0  0  0  0  0  0  0  0  0  0  0
   -1.6500   -1.6229    0.0000 C   0  0  0  0  0  0  0  0  0  0  0  0
   -1.6617   -4.0922    0.0000 C   0  0  0  0  0  0  0  0  0  0  0  0
    4.0417   -4.1038    0.0000 C   0  0  0  0  0  0  0  0  0  0  0  0
    0.4815    0.2174    0.0000 C   0  0  0  0  0  0  0  0  0  0  0  0
    4.0300    0.8580    0.0000 C   0  0  0  0  0  0  0  0  0  0  0  0
    2.6013    0.8503    0.0000 C   0  0  0  0  0  0  0  0  0  0  0  0
    4.7638   -2.0189    0.0000 C   0  0  0  0  0  0  0  0  0  0  0  0
    2.6013   -7.1555    0.0000 C   0  0  0  0  0  0  0  0  0  0  0  0
   -1.6656   -4.9075    0.0000 C   0  0  0  0  0  0  0  0  0  0  0  0
  2  8  1  0
  3  4  1  0
  4  2  1  0
  5  1  1  0
  6 20  1  0
  7 11  1  6
  8  7  1  0
  9  3  1  0
 10  7  1  0
  1 11  1  1
 12 17  1  0
 13  5  1  0
 14 27  1  0
 15 24  1  6
 16 22  1  0
 17 15  1  0
 18  1  1  0
 19 15  1  0
 20  9  1  0
 21 25  1  0
 22 26  1  0
 23 10  1  0
  2 24  1  1
 25 19  1  0
 26 14  1  0
 27 23  1  0
 28 31  1  0
 13 29  1  1
 30  3  2  0
 31 18  1  0
  6 32  1  1
  5 33  1  6
 21 34  1  0
 10 35  1  6
 12 36  1  6
 16 37  1  6
  6 38  1  0
  4 39  1  1
  8 40  1  1
 41 14  1  0
 10 42  1  0
 12 43  1  0
 22 44  1  6
 20 45  1  1
 25 46  1  1
 27 47  1  6
 48 29  1  0
 49 29  1  0
 31 50  1  1
 51 36  1  0
 52 45  1  0
 28 13  1  0
  6 16  1  0
 21 12  1  0
M  END

> <chembl_id>
CHEMBL268002

> <chembl_pref_name>
None


$$$$

     RDKit          2D

 69 74  0  0  1  0  0  0  0  0999 V2000
    2.7292   -8.3292    0.0000 C   0  0  0  0  0  0  0  0  0  0  0  0
    2.7292   -7.5042    0.0000 C   0  0  0  0  0  0  0  0  0  0  0  0
    1.3000   -7.5042    0.0000 C   0  0  0  0  0  0  0  0  0  0  0  0
    2.0167   -7.0917    0.0000 N   0  0  0  0  0  0  0  0  0  0  0  0
    1.9292   -8.1167    0.0000 O   0  0  0  0  0  0  0  0  0  0  0  0
    7.1792   -7.0750    0.0000 C   0  0  0  0  0  0  0  0  0  0  0  0
    3.4500   -7.0917    0.0000 C   0  0  0  0  0  0  0  0  0  0  0  0
    4.8667   -8.7417    0.0000 C   0  0  0  0  0  0  0  0  0  0  0  0
    4.1500   -9.9792    0.0000 C   0  0  0  0  0  0  0  0  0  0  0  0
    7.1750   -6.2500    0.0000 C   0  0  0  0  0  0  0  0  0  0  0  0
    7.8917   -5.8417    0.0000 C   0  0  0  0  0  0  0  0  0  0  0  0
    4.8625   -9.5667    0.0000 C   0  0  0  0  0  0  0  0  0  0  0  0
    5.5875   -7.5042    0.0000 C   0  0  0  0  0  0  0  0  0  0  0  0
    5.5792   -8.3292    0.0000 C   0  0  0  0  0  0  0  0  0  0  0  0
    3.4500   -6.2667    0.0000 C   0  0  0  0  0  0  0  0  0  0  0  0
    3.4375   -9.5667    0.0000 O   0  0  0  0  0  0  0  0  0  0  0  0
    6.3792   -7.2917    0.0000 O   0  0  0  0  0  0  0  0  0  0  0  0
    6.9917  -10.8042    0.0000 C   0  0  0  0  0  0  0  0  0  0  0  0
    4.8667   -7.0917    0.0000 C   0  0  0  0  0  0  0  0  0  0  0  0
    3.4417   -8.7417    0.0000 C   0  0  0  0  0  0  0  0  0  0  0  0
    6.2917   -9.5667    0.0000 C   0  0  0  0  0  0  0  0  0  0  0  0
    6.2875  -10.3917    0.0000 C   0  0  0  0  0  0  0  0  0  0  0  0
    7.8875   -5.0167    0.0000 N   0  0  0  0  0  0  0  0  0  0  0  0
    7.8917   -7.4875    0.0000 O   0  0  0  0  0  0  0  0  0  0  0  0
    7.0042   -9.1542    0.0000 O   0  0  0  0  0  0  0  0  0  0  0  0
    7.7125  -10.3917    0.0000 C   0  0  0  0  0  0  0  0  0  0  0  0
    5.5792   -9.1542    0.0000 O   0  0  0  0  0  0  0  0  0  0  0  0
    7.7167   -9.5667    0.0000 C   0  0  0  0  0  0  0  0  0  0  0  0
    4.1542   -5.8542    0.0000 C   0  0  0  0  0  0  0  0  0  0  0  0
    4.8667   -6.2667    0.0000 C   0  0  0  0  0  0  0  0  0  0  0  0
    8.6042   -6.2542    0.0000 C   0  0  0  0  0  0  0  0  0  0  0  0
    2.0167   -6.2667    0.0000 C   0  0  0  0  0  0  0  0  0  0  0  0
    0.5875   -3.8000    0.0000 C   0  0  0  0  0  0  0  0  0  0  0  0
    0.5000   -7.2875    0.0000 O   0  0  0  0  0  0  0  0  0  0  0  0
    4.1417  -10.8042    0.0000 O   0  0  0  0  0  0  0  0  0  0  0  0
    8.6000   -7.0750    0.0000 C   0  0  0  0  0  0  0  0  0  0  0  0
    2.7292   -5.8542    0.0000 O   0  0  0  0  0  0  0  0  0  0  0  0
    1.3042   -3.3792    0.0000 C   0  0  0  0  0  0  0  0  0  0  0  0
    0.5917   -4.6250    0.0000 C   0  0  0  0  0  0  0  0  0  0  0  0
    8.5917   -4.6000    0.0000 C   0  0  0  0  0  0  0  0  0  0  0  0
    6.4542   -5.8375    0.0000 O   0  0  0  0  0  0  0  0  0  0  0  0
    2.1417   -8.9167    0.0000 C   0  0  0  0  0  0  0  0  0  0  0  0
    2.0167   -3.8000    0.0000 C   0  0  0  0  0  0  0  0  0  0  0  0
    7.5792  -11.3875    0.0000 O   0  0  0  0  0  0  0  0  0  0  0  0
    5.2792   -6.3792    0.0000 O   0  0  0  0  0  0  0  0  0  0  0  0
    1.3042   -5.0292    0.0000 C   0  0  0  0  0  0  0  0  0  0  0  0
    1.3000   -5.8542    0.0000 C   0  0  0  0  0  0  0  0  0  0  0  0
    8.4250  -10.8042    0.0000 O   0  0  0  0  0  0  0  0  0  0  0  0
   -0.1333   -3.3875    0.0000 Cl  0  0  0  0  0  0  0  0  0  0  0  0
    2.7292   -6.6792    0.0000 C   0  0  0  0  0  0  0  0  0  0  0  0
    1.3000   -2.5542    0.0000 Cl  0  0  0  0  0  0  0  0  0  0  0  0
    5.5750   -9.9792    0.0000 C   0  0  0  0  0  0  0  0  0  0  0  0
    2.0167   -4.6250    0.0000 C   0  0  0  0  0  0  0  0  0  0  0  0
    6.2917   -8.7417    0.0000 C   0  0  0  0  0  0  0  0  0  0  0  0
    6.4042  -11.3875    0.0000 C   0  0  0  0  0  0  0  0  0  0  0  0
    5.6667   -6.8792    0.0000 C   0  0  0  0  0  0  0  0  0  0  0  0
    7.1667   -4.6042    0.0000 C   0  0  0  0  0  0  0  0  0  0  0  0
    2.7250   -9.1542    0.0000 C   0  0  0  0  0  0  0  0  0  0  0  0
    8.4292   -9.1542    0.0000 C   0  0  0  0  0  0  0  0  0  0  0  0
    4.1542   -5.0292    0.0000 C   0  0  0  0  0  0  0  0  0  0  0  0
    9.3125   -7.4875    0.0000 C   0  0  0  0  0  0  0  0  0  0  0  0
    9.3500   -4.9292    0.0000 C   0  0  0  0  0  0  0  0  0  0  0  0
    8.6750   -3.7750    0.0000 C   0  0  0  0  0  0  0  0  0  0  0  0
    5.2750   -5.5542    0.0000 C   0  0  0  0  0  0  0  0  0  0  0  0
    7.3625  -12.1792    0.0000 C   0  0  0  0  0  0  0  0  0  0  0  0
    2.7167   -9.9792    0.0000 C   0  0  0  0  0  0  0  0  0  0  0  0
    9.4792   -3.6000    0.0000 C   0  0  0  0  0  0  0  0  0  0  0  0
    9.9000   -4.3125    0.0000 C   0  0  0  0  0  0  0  0  0  0  0  0
    2.7317   -6.5042    0.0000 H   0  0  0  0  0  0  0  0  0  0  0  0
  2  1  1  0
  3  5  1  0
  2  4  1  0
  1  5  1  0
 17  6  1  0
  7  2  1  0
  8 12  1  0
  9 16  1  0
 10  6  1  0
 11 10  1  0
 12  9  1  0
 13 14  1  0
 14  8  1  0
 15  7  1  0
 16 20  1  0
 13 17  1  6
 18 22  1  0
 19 30  1  0
 20  1  1  0
 21 27  1  0
 22 21  1  0
 11 23  1  1
 24  6  1  0
 25 21  1  0
 26 28  1  0
  8 27  1  1
 28 25  1  0
 29 15  1  0
 30 29  1  0
 31 36  1  0
 32  4  1  0
 33 39  2  0
 34  3  2  0
 35  9  2  0
 36 24  1  0
 37 15  2  0
 38 43  2  0
 39 46  1  0
 40 23  1  0
 10 41  1  6
  1 42  1  6
 43 53  1  0
 18 44  1  0
 19 45  1  0
 46 47  1  0
 47 32  1  0
 26 48  1  6
 49 33  1  0
  7 50  1  6
 51 38  1  0
 12 52  1  1
 53 46  2  0
 14 54  1  1
 18 55  1  1
 19 56  1  1
 57 23  1  0
 20 58  1  1
 28 59  1  1
 29 60  1  6
 36 61  1  1
 62 40  1  0
 63 40  1  0
 64 45  1  0
 65 44  1  0
 66 58  1  0
 67 63  1  0
 68 62  1  0
  3  4  1  0
 13 19  1  0
 38 33  1  0
 26 18  1  0
 11 31  1  0
 67 68  1  0
  2 69  1  1
M  END

> <chembl_id>
CHEMBL264043

> <chembl_pref_name>
None


$$$$

     RDKit          2D

 70 75  0  0  1  0  0  0  0  0999 V2000
    2.1167   -9.4792    0.0000 C   0  0  0  0  0  0  0  0  0  0  0  0
    2.1250   -8.6542    0.0000 C   0  0  0  0  0  0  0  0  0  0  0  0
    0.6917   -8.6542    0.0000 C   0  0  0  0  0  0  0  0  0  0  0  0
    1.4042   -8.2417    0.0000 N   0  0  0  0  0  0  0  0  0  0  0  0
    1.3167   -9.2667    0.0000 O   0  0  0  0  0  0  0  0  0  0  0  0
    6.5667   -8.2250    0.0000 C   0  0  0  0  0  0  0  0  0  0  0  0
    2.8417   -8.2417    0.0000 C   0  0  0  0  0  0  0  0  0  0  0  0
    7.2792   -6.9917    0.0000 C   0  0  0  0  0  0  0  0  0  0  0  0
    4.2542   -9.8917    0.0000 C   0  0  0  0  0  0  0  0  0  0  0  0
    3.5417  -11.1292    0.0000 C   0  0  0  0  0  0  0  0  0  0  0  0
    6.5667   -7.4000    0.0000 C   0  0  0  0  0  0  0  0  0  0  0  0
    4.2542  -10.7167    0.0000 C   0  0  0  0  0  0  0  0  0  0  0  0
    4.9792   -8.6542    0.0000 C   0  0  0  0  0  0  0  0  0  0  0  0
    4.9750   -9.4792    0.0000 C   0  0  0  0  0  0  0  0  0  0  0  0
    2.8417   -7.4167    0.0000 C   0  0  0  0  0  0  0  0  0  0  0  0
    2.8292  -10.7167    0.0000 O   0  0  0  0  0  0  0  0  0  0  0  0
    7.2792   -6.1667    0.0000 N   0  0  0  0  0  0  0  0  0  0  0  0
    5.7750   -8.4417    0.0000 O   0  0  0  0  0  0  0  0  0  0  0  0
    6.3875  -11.9542    0.0000 C   0  0  0  0  0  0  0  0  0  0  0  0
    4.2625   -8.2417    0.0000 C   0  0  0  0  0  0  0  0  0  0  0  0
    2.8292   -9.8917    0.0000 C   0  0  0  0  0  0  0  0  0  0  0  0
    5.6792  -10.7167    0.0000 C   0  0  0  0  0  0  0  0  0  0  0  0
    5.6792  -11.5417    0.0000 C   0  0  0  0  0  0  0  0  0  0  0  0
    7.2792   -8.6375    0.0000 O   0  0  0  0  0  0  0  0  0  0  0  0
    6.3917  -10.3042    0.0000 O   0  0  0  0  0  0  0  0  0  0  0  0
    7.1042  -11.5417    0.0000 C   0  0  0  0  0  0  0  0  0  0  0  0
    4.9667  -10.3042    0.0000 O   0  0  0  0  0  0  0  0  0  0  0  0
    7.1042  -10.7167    0.0000 C   0  0  0  0  0  0  0  0  0  0  0  0
    3.5500   -7.0042    0.0000 C   0  0  0  0  0  0  0  0  0  0  0  0
    7.9917   -7.4042    0.0000 C   0  0  0  0  0  0  0  0  0  0  0  0
    4.2625   -7.4167    0.0000 C   0  0  0  0  0  0  0  0  0  0  0  0
    1.4042   -7.4167    0.0000 C   0  0  0  0  0  0  0  0  0  0  0  0
    6.5625   -5.7542    0.0000 C   0  0  0  0  0  0  0  0  0  0  0  0
    6.5542   -4.9292    0.0000 C   0  0  0  0  0  0  0  0  0  0  0  0
   -0.1083   -8.4375    0.0000 O   0  0  0  0  0  0  0  0  0  0  0  0
    6.9542   -4.2042    0.0000 C   0  0  0  0  0  0  0  0  0  0  0  0
    6.1292   -4.2125    0.0000 C   0  0  0  0  0  0  0  0  0  0  0  0
    3.5375  -11.9542    0.0000 O   0  0  0  0  0  0  0  0  0  0  0  0
    7.9917   -8.2250    0.0000 C   0  0  0  0  0  0  0  0  0  0  0  0
    2.1250   -7.0042    0.0000 O   0  0  0  0  0  0  0  0  0  0  0  0
    7.9875   -5.7500    0.0000 C   0  0  0  0  0  0  0  0  0  0  0  0
    5.8500   -6.9875    0.0000 O   0  0  0  0  0  0  0  0  0  0  0  0
    1.5292  -10.0667    0.0000 C   0  0  0  0  0  0  0  0  0  0  0  0
    6.9667  -12.5375    0.0000 O   0  0  0  0  0  0  0  0  0  0  0  0
    4.6667   -7.5292    0.0000 O   0  0  0  0  0  0  0  0  0  0  0  0
    7.8167  -11.9542    0.0000 O   0  0  0  0  0  0  0  0  0  0  0  0
    0.6917   -7.0042    0.0000 C   0  0  0  0  0  0  0  0  0  0  0  0
    2.1250   -7.8292    0.0000 C   0  0  0  0  0  0  0  0  0  0  0  0
    0.6917   -4.5292    0.0000 C   0  0  0  0  0  0  0  0  0  0  0  0
    0.6917   -6.1792    0.0000 C   0  0  0  0  0  0  0  0  0  0  0  0
    4.9667  -11.1292    0.0000 C   0  0  0  0  0  0  0  0  0  0  0  0
    5.6875   -9.8917    0.0000 C   0  0  0  0  0  0  0  0  0  0  0  0
    0.6917   -3.7042    0.0000 Cl  0  0  0  0  0  0  0  0  0  0  0  0
    5.8000  -12.5375    0.0000 C   0  0  0  0  0  0  0  0  0  0  0  0
    5.0542   -8.0292    0.0000 C   0  0  0  0  0  0  0  0  0  0  0  0
    1.4125   -4.9500    0.0000 C   0  0  0  0  0  0  0  0  0  0  0  0
   -0.0208   -4.9500    0.0000 C   0  0  0  0  0  0  0  0  0  0  0  0
    1.4042   -5.7750    0.0000 C   0  0  0  0  0  0  0  0  0  0  0  0
   -0.0208   -5.7750    0.0000 C   0  0  0  0  0  0  0  0  0  0  0  0
    2.1167  -10.3042    0.0000 C   0  0  0  0  0  0  0  0  0  0  0  0
    7.8167  -10.3042    0.0000 C   0  0  0  0  0  0  0  0  0  0  0  0
    3.5500   -6.1792    0.0000 C   0  0  0  0  0  0  0  0  0  0  0  0
    8.7042   -8.6375    0.0000 C   0  0  0  0  0  0  0  0  0  0  0  0
    8.7042   -6.1542    0.0000 C   0  0  0  0  0  0  0  0  0  0  0  0
    7.9792   -4.9250    0.0000 C   0  0  0  0  0  0  0  0  0  0  0  0
    6.7542  -13.3292    0.0000 C   0  0  0  0  0  0  0  0  0  0  0  0
    4.6667   -6.7042    0.0000 C   0  0  0  0  0  0  0  0  0  0  0  0
    2.1125  -11.1292    0.0000 C   0  0  0  0  0  0  0  0  0  0  0  0
    8.7125   -6.9792    0.0000 C   0  0  0  0  0  0  0  0  0  0  0  0
    2.1238   -7.6542    0.0000 H   0  0  0  0  0  0  0  0  0  0  0  0
  2  1  1  0
  3  5  1  0
  2  4  1  0
  1  5  1  0
 18  6  1  0
  7  2  1  0
  8 11  1  0
  9 12  1  0
 10 16  1  0
 11  6  1  0
 12 10  1  0
 13 14  1  0
 14  9  1  0
 15  7  1  0
 16 21  1  0
  8 17  1  1
 13 18  1  6
 19 23  1  0
 20 31  1  0
 21  1  1  0
 22 27  1  0
 23 22  1  0
 24  6  1  0
 25 22  1  0
 26 28  1  0
  9 27  1  1
 28 25  1  0
 29 15  1  0
 30 39  1  0
 31 29  1  0
 32  4  1  0
 33 17  1  0
 34 33  1  0
 35  3  2  0
 36 34  1  0
 37 34  1  0
 38 10  2  0
 39 24  1  0
 40 15  2  0
 41 17  1  0
 11 42  1  6
  1 43  1  6
 19 44  1  0
 20 45  1  0
 26 46  1  6
 47 32  1  0
  7 48  1  6
 49 57  1  0
 50 47  1  0
 12 51  1  1
 14 52  1  1
 53 49  1  0
 19 54  1  1
 20 55  1  1
 56 58  1  0
 57 59  2  0
 58 50  2  0
 59 50  1  0
 21 60  1  1
 28 61  1  1
 29 62  1  6
 39 63  1  1
 64 41  1  0
 65 41  1  0
 66 44  1  0
 67 45  1  0
 68 60  1  0
 69 64  1  0
  3  4  1  0
 13 20  1  0
 49 56  2  0
 26 19  1  0
  8 30  1  0
 36 37  1  0
  2 70  1  1
M  END

> <chembl_id>
CHEMBL216252

> <chembl_pref_name>
None


$$$$

     RDKit          2D

 69 74  0  0  1  0  0  0  0  0999 V2000
    1.7667   -9.4792    0.0000 C   0  0  0  0  0  0  0  0  0  0  0  0
    1.7667   -8.6542    0.0000 C   0  0  0  0  0  0  0  0  0  0  0  0
    0.3375   -8.6542    0.0000 C   0  0  0  0  0  0  0  0  0  0  0  0
    1.0542   -8.2417    0.0000 N   0  0  0  0  0  0  0  0  0  0  0  0
    0.9667   -9.2667    0.0000 O   0  0  0  0  0  0  0  0  0  0  0  0
    6.2167   -8.2250    0.0000 C   0  0  0  0  0  0  0  0  0  0  0  0
    2.4875   -8.2417    0.0000 C   0  0  0  0  0  0  0  0  0  0  0  0
    3.9042   -9.8917    0.0000 C   0  0  0  0  0  0  0  0  0  0  0  0
    3.1875  -11.1292    0.0000 C   0  0  0  0  0  0  0  0  0  0  0  0
    6.2125   -7.4000    0.0000 C   0  0  0  0  0  0  0  0  0  0  0  0
    6.9292   -6.9917    0.0000 C   0  0  0  0  0  0  0  0  0  0  0  0
    3.9000  -10.7167    0.0000 C   0  0  0  0  0  0  0  0  0  0  0  0
    4.6250   -8.6542    0.0000 C   0  0  0  0  0  0  0  0  0  0  0  0
    4.6167   -9.4792    0.0000 C   0  0  0  0  0  0  0  0  0  0  0  0
    2.4875   -7.4167    0.0000 C   0  0  0  0  0  0  0  0  0  0  0  0
    2.4750  -10.7167    0.0000 O   0  0  0  0  0  0  0  0  0  0  0  0
    5.4167   -8.4417    0.0000 O   0  0  0  0  0  0  0  0  0  0  0  0
    6.0292  -11.9542    0.0000 C   0  0  0  0  0  0  0  0  0  0  0  0
    3.9042   -8.2417    0.0000 C   0  0  0  0  0  0  0  0  0  0  0  0
    2.4792   -9.8917    0.0000 C   0  0  0  0  0  0  0  0  0  0  0  0
    5.3292  -10.7167    0.0000 C   0  0  0  0  0  0  0  0  0  0  0  0
    5.3250  -11.5417    0.0000 C   0  0  0  0  0  0  0  0  0  0  0  0
    6.9250   -6.1667    0.0000 N   0  0  0  0  0  0  0  0  0  0  0  0
    6.9292   -8.6375    0.0000 O   0  0  0  0  0  0  0  0  0  0  0  0
    6.0417  -10.3042    0.0000 O   0  0  0  0  0  0  0  0  0  0  0  0
    6.7500  -11.5417    0.0000 C   0  0  0  0  0  0  0  0  0  0  0  0
    4.6167  -10.3042    0.0000 O   0  0  0  0  0  0  0  0  0  0  0  0
    6.7542  -10.7167    0.0000 C   0  0  0  0  0  0  0  0  0  0  0  0
    3.1917   -7.0042    0.0000 C   0  0  0  0  0  0  0  0  0  0  0  0
    3.9042   -7.4167    0.0000 C   0  0  0  0  0  0  0  0  0  0  0  0
    7.6417   -7.4042    0.0000 C   0  0  0  0  0  0  0  0  0  0  0  0
    1.0542   -7.4167    0.0000 C   0  0  0  0  0  0  0  0  0  0  0  0
   -0.4625   -8.4375    0.0000 O   0  0  0  0  0  0  0  0  0  0  0  0
    3.1792  -11.9542    0.0000 O   0  0  0  0  0  0  0  0  0  0  0  0
    7.6375   -8.2250    0.0000 C   0  0  0  0  0  0  0  0  0  0  0  0
    1.7667   -7.0042    0.0000 O   0  0  0  0  0  0  0  0  0  0  0  0
    7.6292   -5.7500    0.0000 C   0  0  0  0  0  0  0  0  0  0  0  0
    5.4917   -6.9875    0.0000 O   0  0  0  0  0  0  0  0  0  0  0  0
    1.1792  -10.0667    0.0000 C   0  0  0  0  0  0  0  0  0  0  0  0
    6.6167  -12.5375    0.0000 O   0  0  0  0  0  0  0  0  0  0  0  0
    4.3167   -7.5292    0.0000 O   0  0  0  0  0  0  0  0  0  0  0  0
    7.4625  -11.9542    0.0000 O   0  0  0  0  0  0  0  0  0  0  0  0
    0.3375   -7.0042    0.0000 C   0  0  0  0  0  0  0  0  0  0  0  0
    1.7667   -7.8292    0.0000 C   0  0  0  0  0  0  0  0  0  0  0  0
    0.3417   -4.5292    0.0000 C   0  0  0  0  0  0  0  0  0  0  0  0
    0.3417   -6.1792    0.0000 C   0  0  0  0  0  0  0  0  0  0  0  0
    4.6125  -11.1292    0.0000 C   0  0  0  0  0  0  0  0  0  0  0  0
    5.3292   -9.8917    0.0000 C   0  0  0  0  0  0  0  0  0  0  0  0
    0.3375   -3.7042    0.0000 Cl  0  0  0  0  0  0  0  0  0  0  0  0
    5.4417  -12.5375    0.0000 C   0  0  0  0  0  0  0  0  0  0  0  0
    4.7042   -8.0292    0.0000 C   0  0  0  0  0  0  0  0  0  0  0  0
    1.0542   -4.9500    0.0000 C   0  0  0  0  0  0  0  0  0  0  0  0
   -0.3750   -4.9500    0.0000 C   0  0  0  0  0  0  0  0  0  0  0  0
    1.0542   -5.7750    0.0000 C   0  0  0  0  0  0  0  0  0  0  0  0
   -0.3708   -5.7750    0.0000 C   0  0  0  0  0  0  0  0  0  0  0  0
    6.2042   -5.7542    0.0000 C   0  0  0  0  0  0  0  0  0  0  0  0
    1.7625  -10.3042    0.0000 C   0  0  0  0  0  0  0  0  0  0  0  0
    7.4667  -10.3042    0.0000 C   0  0  0  0  0  0  0  0  0  0  0  0
    3.1917   -6.1792    0.0000 C   0  0  0  0  0  0  0  0  0  0  0  0
    8.3500   -8.6375    0.0000 C   0  0  0  0  0  0  0  0  0  0  0  0
    7.6292   -4.9292    0.0000 C   0  0  0  0  0  0  0  0  0  0  0  0
    8.3542   -6.1667    0.0000 C   0  0  0  0  0  0  0  0  0  0  0  0
    6.4000  -13.3292    0.0000 C   0  0  0  0  0  0  0  0  0  0  0  0
    4.3125   -6.7042    0.0000 C   0  0  0  0  0  0  0  0  0  0  0  0
    1.7542  -11.1292    0.0000 C   0  0  0  0  0  0  0  0  0  0  0  0
    9.0625   -5.7500    0.0000 C   0  0  0  0  0  0  0  0  0  0  0  0
    8.3417   -4.5167    0.0000 C   0  0  0  0  0  0  0  0  0  0  0  0
    9.0625   -4.9250    0.0000 C   0  0  0  0  0  0  0  0  0  0  0  0
    1.7692   -7.6542    0.0000 H   0  0  0  0  0  0  0  0  0  0  0  0
  2  1  1  0
  3  5  1  0
  2  4  1  0
  1  5  1  0
 17  6  1  0
  7  2  1  0
  8 12  1  0
  9 16  1  0
 10  6  1  0
 11 10  1  0
 12  9  1  0
 13 14  1  0
 14  8  1  0
 15  7  1  0
 16 20  1  0
 13 17  1  6
 18 22  1  0
 19 30  1  0
 20  1  1  0
 21 27  1  0
 22 21  1  0
 11 23  1  1
 24  6  1  0
 25 21  1  0
 26 28  1  0
  8 27  1  1
 28 25  1  0
 29 15  1  0
 30 29  1  0
 31 35  1  0
 32  4  1  0
 33  3  2  0
 34  9  2  0
 35 24  1  0
 36 15  2  0
 37 23  1  0
 10 38  1  6
  1 39  1  6
 18 40  1  0
 19 41  1  0
 26 42  1  6
 43 32  1  0
  7 44  1  6
 45 53  1  0
 46 43  1  0
 12 47  1  1
 14 48  1  1
 49 45  1  0
 18 50  1  1
 19 51  1  1
 52 54  1  0
 53 55  2  0
 54 46  2  0
 55 46  1  0
 56 23  1  0
 20 57  1  1
 28 58  1  1
 29 59  1  6
 35 60  1  1
 61 37  1  0
 62 37  1  0
 63 40  1  0
 64 41  1  0
 65 57  1  0
 66 62  1  0
 67 61  1  0
 68 66  1  0
  3  4  1  0
 13 19  1  0
 45 52  2  0
 26 18  1  0
 11 31  1  0
 68 67  1  0
  2 69  1  1
M  END

> <chembl_id>
CHEMBL384920

> <chembl_pref_name>
None


$$$$

     RDKit          2D

 65 70  0  0  1  0  0  0  0  0999 V2000
    5.2625   -4.5750    0.0000 C   0  0  0  0  0  0  0  0  0  0  0  0
    9.5375   -5.3917    0.0000 N   0  0  0  0  0  0  0  0  0  0  0  0
    8.8250   -5.8042    0.0000 C   0  0  0  0  0  0  0  0  0  0  0  0
    5.2667   -3.7500    0.0000 C   0  0  0  0  0  0  0  0  0  0  0  0
    3.8292   -3.7417    0.0000 C   0  0  0  0  0  0  0  0  0  0  0  0
    4.5500   -3.3375    0.0000 N   0  0  0  0  0  0  0  0  0  0  0  0
    4.4625   -4.3542    0.0000 O   0  0  0  0  0  0  0  0  0  0  0  0
    7.4000   -4.9792    0.0000 C   0  0  0  0  0  0  0  0  0  0  0  0
    9.7125   -3.3167    0.0000 C   0  0  0  0  0  0  0  0  0  0  0  0
    5.9792   -3.3375    0.0000 C   0  0  0  0  0  0  0  0  0  0  0  0
    6.6792   -6.2250    0.0000 C   0  0  0  0  0  0  0  0  0  0  0  0
   10.2875   -5.7292    0.0000 C   0  0  0  0  0  0  0  0  0  0  0  0
    7.3917   -5.8042    0.0000 C   0  0  0  0  0  0  0  0  0  0  0  0
    9.7042   -2.4917    0.0000 C   0  0  0  0  0  0  0  0  0  0  0  0
    8.1167   -3.7500    0.0000 C   0  0  0  0  0  0  0  0  0  0  0  0
    8.1125   -5.3917    0.0000 O   0  0  0  0  0  0  0  0  0  0  0  0
    8.1167   -4.5750    0.0000 C   0  0  0  0  0  0  0  0  0  0  0  0
    5.9792   -2.5125    0.0000 C   0  0  0  0  0  0  0  0  0  0  0  0
   10.4250   -2.0792    0.0000 C   0  0  0  0  0  0  0  0  0  0  0  0
    5.9667   -5.8125    0.0000 O   0  0  0  0  0  0  0  0  0  0  0  0
    8.9167   -3.5292    0.0000 O   0  0  0  0  0  0  0  0  0  0  0  0
    7.4042   -3.3375    0.0000 C   0  0  0  0  0  0  0  0  0  0  0  0
    5.9750   -4.9875    0.0000 C   0  0  0  0  0  0  0  0  0  0  0  0
   10.4250   -3.7292    0.0000 O   0  0  0  0  0  0  0  0  0  0  0  0
   10.8417   -5.1167    0.0000 O   0  0  0  0  0  0  0  0  0  0  0  0
   10.4167   -1.2542    0.0000 N   0  0  0  0  0  0  0  0  0  0  0  0
    6.6917   -2.0917    0.0000 C   0  0  0  0  0  0  0  0  0  0  0  0
    7.4042   -2.5125    0.0000 C   0  0  0  0  0  0  0  0  0  0  0  0
    4.5500   -2.5125    0.0000 C   0  0  0  0  0  0  0  0  0  0  0  0
   11.1375   -2.4917    0.0000 C   0  0  0  0  0  0  0  0  0  0  0  0
    9.6250   -4.5667    0.0000 C   0  0  0  0  0  0  0  0  0  0  0  0
    8.8167   -6.6292    0.0000 O   0  0  0  0  0  0  0  0  0  0  0  0
   11.8417   -1.2500    0.0000 C   0  0  0  0  0  0  0  0  0  0  0  0
    3.0292   -3.5292    0.0000 O   0  0  0  0  0  0  0  0  0  0  0  0
   11.1292   -0.8417    0.0000 C   0  0  0  0  0  0  0  0  0  0  0  0
   12.2625   -1.9542    0.0000 C   0  0  0  0  0  0  0  0  0  0  0  0
   12.6667   -1.2417    0.0000 C   0  0  0  0  0  0  0  0  0  0  0  0
    6.6792   -7.0500    0.0000 O   0  0  0  0  0  0  0  0  0  0  0  0
   10.5000   -6.5250    0.0000 O   0  0  0  0  0  0  0  0  0  0  0  0
   11.1292   -3.3167    0.0000 C   0  0  0  0  0  0  0  0  0  0  0  0
    5.2667   -2.1000    0.0000 O   0  0  0  0  0  0  0  0  0  0  0  0
   10.4292   -4.4000    0.0000 C   0  0  0  0  0  0  0  0  0  0  0  0
    8.9917   -2.0792    0.0000 O   0  0  0  0  0  0  0  0  0  0  0  0
    4.6750   -5.1542    0.0000 C   0  0  0  0  0  0  0  0  0  0  0  0
    7.8125   -2.6167    0.0000 O   0  0  0  0  0  0  0  0  0  0  0  0
    3.8292   -2.0917    0.0000 C   0  0  0  0  0  0  0  0  0  0  0  0
    5.2667   -2.9250    0.0000 C   0  0  0  0  0  0  0  0  0  0  0  0
    3.8375    0.3750    0.0000 C   0  0  0  0  0  0  0  0  0  0  0  0
    3.8375   -1.2667    0.0000 C   0  0  0  0  0  0  0  0  0  0  0  0
    8.1042   -6.2167    0.0000 C   0  0  0  0  0  0  0  0  0  0  0  0
    8.8292   -4.9875    0.0000 C   0  0  0  0  0  0  0  0  0  0  0  0
    3.8292    1.2000    0.0000 Cl  0  0  0  0  0  0  0  0  0  0  0  0
    8.2000   -3.1167    0.0000 C   0  0  0  0  0  0  0  0  0  0  0  0
    3.1167   -0.0417    0.0000 C   0  0  0  0  0  0  0  0  0  0  0  0
    4.5542   -0.0417    0.0000 C   0  0  0  0  0  0  0  0  0  0  0  0
    3.1250   -0.8667    0.0000 C   0  0  0  0  0  0  0  0  0  0  0  0
    4.5500   -0.8667    0.0000 C   0  0  0  0  0  0  0  0  0  0  0  0
    9.7000   -0.8417    0.0000 C   0  0  0  0  0  0  0  0  0  0  0  0
    5.2542   -5.3917    0.0000 C   0  0  0  0  0  0  0  0  0  0  0  0
    6.6917   -1.2667    0.0000 C   0  0  0  0  0  0  0  0  0  0  0  0
    9.0375   -3.9792    0.0000 C   0  0  0  0  0  0  0  0  0  0  0  0
   11.8417   -3.7292    0.0000 C   0  0  0  0  0  0  0  0  0  0  0  0
    7.8042   -1.7917    0.0000 C   0  0  0  0  0  0  0  0  0  0  0  0
    5.2542   -6.2167    0.0000 C   0  0  0  0  0  0  0  0  0  0  0  0
    5.2654   -2.7500    0.0000 H   0  0  0  0  0  0  0  0  0  0  0  0
  2  3  1  0
  3 16  1  0
  4  1  1  0
  5  7  1  0
  4  6  1  0
  1  7  1  0
  8 13  1  0
 21  9  1  0
 10  4  1  0
 11 20  1  0
 12  2  1  0
 13 11  1  0
 14  9  1  0
 15 17  1  0
  8 16  1  1
 17  8  1  0
 18 10  1  0
 19 14  1  0
 20 23  1  0
 15 21  1  6
 22 28  1  0
 23  1  1  0
 24  9  1  0
 25 12  1  0
 19 26  1  1
 27 18  1  0
 28 27  1  0
 29  6  1  0
 30 40  1  0
 31  2  1  0
 32  3  2  0
 33 35  1  0
 34  5  2  0
 35 26  1  0
 36 33  1  0
 37 33  1  0
 38 11  2  0
 39 12  2  0
 40 24  1  0
 41 18  2  0
 42 31  1  0
 14 43  1  6
  1 44  1  6
 22 45  1  0
 46 29  1  0
 10 47  1  6
 48 55  2  0
 49 46  1  0
 13 50  1  1
 17 51  1  1
 52 48  1  0
 22 53  1  1
 54 56  2  0
 55 57  1  0
 56 49  1  0
 57 49  2  0
 58 26  1  0
 23 59  1  1
 27 60  1  6
 31 61  1  1
 40 62  1  1
 63 45  1  0
 64 59  1  0
  5  6  1  0
 15 22  1  0
 48 54  1  0
 42 25  1  0
 19 30  1  0
 36 37  1  0
  4 65  1  1
M  END

> <chembl_id>
CHEMBL418256

> <chembl_pref_name>
None


$$$$

     RDKit          2D

 67 72  0  0  1  0  0  0  0  0999 V2000
    1.7125   -9.4792    0.0000 C   0  0  0  0  0  0  0  0  0  0  0  0
    1.7167   -8.6542    0.0000 C   0  0  0  0  0  0  0  0  0  0  0  0
    0.2792   -8.6542    0.0000 C   0  0  0  0  0  0  0  0  0  0  0  0
    1.0000   -8.2417    0.0000 N   0  0  0  0  0  0  0  0  0  0  0  0
    0.9125   -9.2667    0.0000 O   0  0  0  0  0  0  0  0  0  0  0  0
    6.1625   -8.2250    0.0000 C   0  0  0  0  0  0  0  0  0  0  0  0
    2.4292   -8.2417    0.0000 C   0  0  0  0  0  0  0  0  0  0  0  0
    3.8500   -9.8917    0.0000 C   0  0  0  0  0  0  0  0  0  0  0  0
    3.1292  -11.1292    0.0000 C   0  0  0  0  0  0  0  0  0  0  0  0
    3.8417  -10.7167    0.0000 C   0  0  0  0  0  0  0  0  0  0  0  0
    6.1542   -7.4000    0.0000 C   0  0  0  0  0  0  0  0  0  0  0  0
    4.5667   -8.6542    0.0000 C   0  0  0  0  0  0  0  0  0  0  0  0
    4.5667   -9.4792    0.0000 C   0  0  0  0  0  0  0  0  0  0  0  0
    2.4292   -7.4167    0.0000 C   0  0  0  0  0  0  0  0  0  0  0  0
    6.8750   -6.9917    0.0000 C   0  0  0  0  0  0  0  0  0  0  0  0
    2.4167  -10.7167    0.0000 O   0  0  0  0  0  0  0  0  0  0  0  0
    5.3667   -8.4417    0.0000 O   0  0  0  0  0  0  0  0  0  0  0  0
    5.9792  -11.9542    0.0000 C   0  0  0  0  0  0  0  0  0  0  0  0
    3.8542   -8.2417    0.0000 C   0  0  0  0  0  0  0  0  0  0  0  0
    2.4250   -9.8917    0.0000 C   0  0  0  0  0  0  0  0  0  0  0  0
    5.2750  -10.7167    0.0000 C   0  0  0  0  0  0  0  0  0  0  0  0
    5.2667  -11.5417    0.0000 C   0  0  0  0  0  0  0  0  0  0  0  0
    6.8750   -8.6375    0.0000 O   0  0  0  0  0  0  0  0  0  0  0  0
    5.9875  -10.3042    0.0000 O   0  0  0  0  0  0  0  0  0  0  0  0
    6.6917  -11.5417    0.0000 C   0  0  0  0  0  0  0  0  0  0  0  0
    6.8667   -6.1667    0.0000 N   0  0  0  0  0  0  0  0  0  0  0  0
    4.5625  -10.3042    0.0000 O   0  0  0  0  0  0  0  0  0  0  0  0
    6.7000  -10.7167    0.0000 C   0  0  0  0  0  0  0  0  0  0  0  0
    3.1417   -7.0042    0.0000 C   0  0  0  0  0  0  0  0  0  0  0  0
    3.8542   -7.4167    0.0000 C   0  0  0  0  0  0  0  0  0  0  0  0
    1.0000   -7.4167    0.0000 C   0  0  0  0  0  0  0  0  0  0  0  0
    7.5875   -7.4042    0.0000 C   0  0  0  0  0  0  0  0  0  0  0  0
    8.2917   -6.1542    0.0000 C   0  0  0  0  0  0  0  0  0  0  0  0
   -0.5208   -8.4375    0.0000 O   0  0  0  0  0  0  0  0  0  0  0  0
    7.5792   -5.7500    0.0000 C   0  0  0  0  0  0  0  0  0  0  0  0
    8.7125   -6.8667    0.0000 C   0  0  0  0  0  0  0  0  0  0  0  0
    9.1167   -6.1500    0.0000 C   0  0  0  0  0  0  0  0  0  0  0  0
    3.1292  -11.9542    0.0000 O   0  0  0  0  0  0  0  0  0  0  0  0
    7.5792   -8.2250    0.0000 C   0  0  0  0  0  0  0  0  0  0  0  0
    1.7167   -7.0042    0.0000 O   0  0  0  0  0  0  0  0  0  0  0  0
    5.4417   -6.9875    0.0000 O   0  0  0  0  0  0  0  0  0  0  0  0
    1.1250  -10.0667    0.0000 C   0  0  0  0  0  0  0  0  0  0  0  0
    6.5625  -12.5375    0.0000 O   0  0  0  0  0  0  0  0  0  0  0  0
    4.2625   -7.5292    0.0000 O   0  0  0  0  0  0  0  0  0  0  0  0
    7.4042  -11.9542    0.0000 O   0  0  0  0  0  0  0  0  0  0  0  0
    0.2792   -7.0042    0.0000 C   0  0  0  0  0  0  0  0  0  0  0  0
    1.7167   -7.8292    0.0000 C   0  0  0  0  0  0  0  0  0  0  0  0
    0.2875   -4.5292    0.0000 C   0  0  0  0  0  0  0  0  0  0  0  0
    0.2875   -6.1792    0.0000 C   0  0  0  0  0  0  0  0  0  0  0  0
    4.5542  -11.1292    0.0000 C   0  0  0  0  0  0  0  0  0  0  0  0
    5.2792   -9.8917    0.0000 C   0  0  0  0  0  0  0  0  0  0  0  0
    0.2792   -3.7042    0.0000 Cl  0  0  0  0  0  0  0  0  0  0  0  0
    5.3917  -12.5375    0.0000 C   0  0  0  0  0  0  0  0  0  0  0  0
    4.6500   -8.0292    0.0000 C   0  0  0  0  0  0  0  0  0  0  0  0
   -0.4333   -4.9500    0.0000 C   0  0  0  0  0  0  0  0  0  0  0  0
    1.0042   -4.9500    0.0000 C   0  0  0  0  0  0  0  0  0  0  0  0
   -0.4250   -5.7750    0.0000 C   0  0  0  0  0  0  0  0  0  0  0  0
    1.0000   -5.7750    0.0000 C   0  0  0  0  0  0  0  0  0  0  0  0
    6.1500   -5.7542    0.0000 C   0  0  0  0  0  0  0  0  0  0  0  0
    1.7042  -10.3042    0.0000 C   0  0  0  0  0  0  0  0  0  0  0  0
    7.4125  -10.3042    0.0000 C   0  0  0  0  0  0  0  0  0  0  0  0
    3.1417   -6.1792    0.0000 C   0  0  0  0  0  0  0  0  0  0  0  0
    8.2917   -8.6375    0.0000 C   0  0  0  0  0  0  0  0  0  0  0  0
    4.2542   -6.7042    0.0000 C   0  0  0  0  0  0  0  0  0  0  0  0
    6.3417  -13.3292    0.0000 C   0  0  0  0  0  0  0  0  0  0  0  0
    1.7042  -11.1292    0.0000 C   0  0  0  0  0  0  0  0  0  0  0  0
    1.7154   -7.6542    0.0000 H   0  0  0  0  0  0  0  0  0  0  0  0
  2  1  1  0
  3  5  1  0
  2  4  1  0
  1  5  1  0
 17  6  1  0
  7  2  1  0
  8 10  1  0
  9 16  1  0
 10  9  1  0
 11  6  1  0
 12 13  1  0
 13  8  1  0
 14  7  1  0
 15 11  1  0
 16 20  1  0
 12 17  1  6
 18 22  1  0
 19 30  1  0
 20  1  1  0
 21 27  1  0
 22 21  1  0
 23  6  1  0
 24 21  1  0
 25 28  1  0
 15 26  1  1
  8 27  1  1
 28 24  1  0
 29 14  1  0
 30 29  1  0
 31  4  1  0
 32 39  1  0
 33 35  1  0
 34  3  2  0
 35 26  1  0
 36 33  1  0
 37 33  1  0
 38  9  2  0
 39 23  1  0
 40 14  2  0
 11 41  1  6
  1 42  1  6
 18 43  1  0
 19 44  1  0
 25 45  1  6
 46 31  1  0
  7 47  1  6
 48 56  2  0
 49 46  1  0
 10 50  1  1
 13 51  1  1
 52 48  1  0
 18 53  1  1
 19 54  1  1
 55 57  2  0
 56 58  1  0
 57 49  1  0
 58 49  2  0
 59 26  1  0
 20 60  1  1
 28 61  1  1
 29 62  1  6
 39 63  1  1
 64 44  1  0
 65 43  1  0
 66 60  1  0
  3  4  1  0
 12 19  1  0
 48 55  1  0
 25 18  1  0
 15 32  1  0
 36 37  1  0
  2 67  1  1
M  END

> <chembl_id>
CHEMBL288534

> <chembl_pref_name>
None


$$$$

     RDKit          2D

 53 56  0  0  1  0  0  0  0  0999 V2000
   -0.1083   -3.0500    0.0000 C   0  0  0  0  0  0  0  0  0  0  0  0
   -0.1000   -2.2250    0.0000 C   0  0  0  0  0  0  0  0  0  0  0  0
   -1.5333   -2.2167    0.0000 C   0  0  0  0  0  0  0  0  0  0  0  0
   -0.8208   -1.8125    0.0000 N   0  0  0  0  0  0  0  0  0  0  0  0
   -0.9083   -2.8292    0.0000 O   0  0  0  0  0  0  0  0  0  0  0  0
    4.3417   -1.7917    0.0000 C   0  0  0  0  0  0  0  0  0  0  0  0
    0.6167   -1.8125    0.0000 C   0  0  0  0  0  0  0  0  0  0  0  0
    1.3167   -4.7000    0.0000 C   0  0  0  0  0  0  0  0  0  0  0  0
    4.3417   -0.9667    0.0000 C   0  0  0  0  0  0  0  0  0  0  0  0
    2.0292   -4.2792    0.0000 C   0  0  0  0  0  0  0  0  0  0  0  0
    2.7542   -2.2250    0.0000 C   0  0  0  0  0  0  0  0  0  0  0  0
    0.6167   -0.9875    0.0000 C   0  0  0  0  0  0  0  0  0  0  0  0
    2.7500   -3.0500    0.0000 C   0  0  0  0  0  0  0  0  0  0  0  0
    0.6042   -4.2875    0.0000 O   0  0  0  0  0  0  0  0  0  0  0  0
    2.0292   -3.4542    0.0000 C   0  0  0  0  0  0  0  0  0  0  0  0
    3.5500   -2.0042    0.0000 O   0  0  0  0  0  0  0  0  0  0  0  0
    5.0542   -0.5542    0.0000 C   0  0  0  0  0  0  0  0  0  0  0  0
    2.0375   -1.8125    0.0000 C   0  0  0  0  0  0  0  0  0  0  0  0
    0.6042   -3.4625    0.0000 C   0  0  0  0  0  0  0  0  0  0  0  0
    5.0542   -2.2042    0.0000 O   0  0  0  0  0  0  0  0  0  0  0  0
    1.3250   -0.5667    0.0000 C   0  0  0  0  0  0  0  0  0  0  0  0
    2.0375   -0.9875    0.0000 C   0  0  0  0  0  0  0  0  0  0  0  0
   -0.8208   -0.9875    0.0000 C   0  0  0  0  0  0  0  0  0  0  0  0
    5.7667   -0.9667    0.0000 C   0  0  0  0  0  0  0  0  0  0  0  0
   -2.3333   -2.0042    0.0000 O   0  0  0  0  0  0  0  0  0  0  0  0
    5.0542    0.2708    0.0000 N   0  0  0  0  0  0  0  0  0  0  0  0
    1.3125   -5.5250    0.0000 O   0  0  0  0  0  0  0  0  0  0  0  0
    5.7667   -1.7917    0.0000 C   0  0  0  0  0  0  0  0  0  0  0  0
   -0.1000   -0.5750    0.0000 O   0  0  0  0  0  0  0  0  0  0  0  0
    3.6250   -0.5542    0.0000 O   0  0  0  0  0  0  0  0  0  0  0  0
   -0.6958   -3.6292    0.0000 C   0  0  0  0  0  0  0  0  0  0  0  0
    2.7417   -3.8667    0.0000 O   0  0  0  0  0  0  0  0  0  0  0  0
    2.4417   -1.0917    0.0000 O   0  0  0  0  0  0  0  0  0  0  0  0
   -1.5333   -0.5667    0.0000 C   0  0  0  0  0  0  0  0  0  0  0  0
   -0.1000   -1.4000    0.0000 C   0  0  0  0  0  0  0  0  0  0  0  0
   -1.5333    1.9000    0.0000 C   0  0  0  0  0  0  0  0  0  0  0  0
   -1.5333    0.2583    0.0000 C   0  0  0  0  0  0  0  0  0  0  0  0
    2.7417   -4.6917    0.0000 C   0  0  0  0  0  0  0  0  0  0  0  0
    3.4625   -3.4625    0.0000 C   0  0  0  0  0  0  0  0  0  0  0  0
   -1.5333    2.7250    0.0000 Cl  0  0  0  0  0  0  0  0  0  0  0  0
    2.8292   -1.5917    0.0000 C   0  0  0  0  0  0  0  0  0  0  0  0
   -0.8125    1.4833    0.0000 C   0  0  0  0  0  0  0  0  0  0  0  0
   -2.2458    1.4833    0.0000 C   0  0  0  0  0  0  0  0  0  0  0  0
   -0.8208    0.6583    0.0000 C   0  0  0  0  0  0  0  0  0  0  0  0
   -2.2458    0.6583    0.0000 C   0  0  0  0  0  0  0  0  0  0  0  0
   -0.1083   -3.8667    0.0000 C   0  0  0  0  0  0  0  0  0  0  0  0
    1.3250    0.2583    0.0000 C   0  0  0  0  0  0  0  0  0  0  0  0
    5.7625    0.6833    0.0000 C   0  0  0  0  0  0  0  0  0  0  0  0
    4.3375    0.6833    0.0000 C   0  0  0  0  0  0  0  0  0  0  0  0
    6.4792   -2.2042    0.0000 C   0  0  0  0  0  0  0  0  0  0  0  0
    2.4417   -0.2667    0.0000 C   0  0  0  0  0  0  0  0  0  0  0  0
   -0.1125   -4.6917    0.0000 C   0  0  0  0  0  0  0  0  0  0  0  0
   -0.1012   -1.2250    0.0000 H   0  0  0  0  0  0  0  0  0  0  0  0
  2  1  1  0
  3  5  1  0
  2  4  1  0
  1  5  1  0
 16  6  1  0
  7  2  1  0
  8 14  1  0
  9  6  1  0
 10  8  1  0
 11 13  1  0
 12  7  1  0
 13 15  1  0
 14 19  1  0
 15 10  1  0
 11 16  1  6
 17  9  1  0
 18 22  1  0
 19  1  1  0
 20  6  1  0
 21 12  1  0
 22 21  1  0
 23  4  1  0
 24 28  1  0
 25  3  2  0
 17 26  1  1
 27  8  2  0
 28 20  1  0
 29 12  2  0
  9 30  1  6
  1 31  1  6
 15 32  1  1
 18 33  1  0
 34 23  1  0
  7 35  1  6
 36 43  1  0
 37 34  1  0
 10 38  1  1
 13 39  1  1
 40 36  1  0
 18 41  1  1
 42 44  1  0
 43 45  2  0
 44 37  2  0
 45 37  1  0
 19 46  1  1
 21 47  1  6
 48 26  1  0
 49 26  1  0
 28 50  1  1
 51 33  1  0
 52 46  1  0
  3  4  1  0
 11 18  1  0
 36 42  2  0
 24 17  1  0
  2 53  1  1
M  END

> <chembl_id>
CHEMBL288216

> <chembl_pref_name>
None


$$$$

     RDKit          2D

 64 68  0  0  1  0  0  0  0  0999 V2000
    2.1250   -9.4792    0.0000 C   0  0  0  0  0  0  0  0  0  0  0  0
    2.1292   -8.6542    0.0000 C   0  0  0  0  0  0  0  0  0  0  0  0
    0.6917   -8.6542    0.0000 C   0  0  0  0  0  0  0  0  0  0  0  0
    1.4125   -8.2417    0.0000 N   0  0  0  0  0  0  0  0  0  0  0  0
    1.3250   -9.2667    0.0000 O   0  0  0  0  0  0  0  0  0  0  0  0
    6.5750   -8.2250    0.0000 C   0  0  0  0  0  0  0  0  0  0  0  0
    2.8417   -8.2417    0.0000 C   0  0  0  0  0  0  0  0  0  0  0  0
    4.2625   -9.8917    0.0000 C   0  0  0  0  0  0  0  0  0  0  0  0
    3.5417  -11.1292    0.0000 C   0  0  0  0  0  0  0  0  0  0  0  0
    4.2542  -10.7167    0.0000 C   0  0  0  0  0  0  0  0  0  0  0  0
    6.5667   -7.4000    0.0000 C   0  0  0  0  0  0  0  0  0  0  0  0
    4.9792   -8.6542    0.0000 C   0  0  0  0  0  0  0  0  0  0  0  0
    4.9792   -9.4792    0.0000 C   0  0  0  0  0  0  0  0  0  0  0  0
    2.8417   -7.4167    0.0000 C   0  0  0  0  0  0  0  0  0  0  0  0
    2.8292  -10.7167    0.0000 O   0  0  0  0  0  0  0  0  0  0  0  0
    5.7792   -8.4417    0.0000 O   0  0  0  0  0  0  0  0  0  0  0  0
    6.3917  -11.9542    0.0000 C   0  0  0  0  0  0  0  0  0  0  0  0
    7.2875   -6.9917    0.0000 C   0  0  0  0  0  0  0  0  0  0  0  0
    4.2667   -8.2417    0.0000 C   0  0  0  0  0  0  0  0  0  0  0  0
    2.8375   -9.8917    0.0000 C   0  0  0  0  0  0  0  0  0  0  0  0
    5.6875  -10.7167    0.0000 C   0  0  0  0  0  0  0  0  0  0  0  0
    5.6792  -11.5417    0.0000 C   0  0  0  0  0  0  0  0  0  0  0  0
    7.2875   -8.6375    0.0000 O   0  0  0  0  0  0  0  0  0  0  0  0
    6.4000  -10.3042    0.0000 O   0  0  0  0  0  0  0  0  0  0  0  0
    7.1042  -11.5417    0.0000 C   0  0  0  0  0  0  0  0  0  0  0  0
    4.9750  -10.3042    0.0000 O   0  0  0  0  0  0  0  0  0  0  0  0
    7.1125  -10.7167    0.0000 C   0  0  0  0  0  0  0  0  0  0  0  0
    3.5542   -7.0042    0.0000 C   0  0  0  0  0  0  0  0  0  0  0  0
    4.2667   -7.4167    0.0000 C   0  0  0  0  0  0  0  0  0  0  0  0
    1.4125   -7.4167    0.0000 C   0  0  0  0  0  0  0  0  0  0  0  0
    8.0000   -7.4042    0.0000 C   0  0  0  0  0  0  0  0  0  0  0  0
   -0.1083   -8.4375    0.0000 O   0  0  0  0  0  0  0  0  0  0  0  0
    7.2792   -6.1667    0.0000 N   0  0  0  0  0  0  0  0  0  0  0  0
    3.5417  -11.9542    0.0000 O   0  0  0  0  0  0  0  0  0  0  0  0
    7.9917   -8.2250    0.0000 C   0  0  0  0  0  0  0  0  0  0  0  0
    2.1292   -7.0042    0.0000 O   0  0  0  0  0  0  0  0  0  0  0  0
    5.8542   -6.9875    0.0000 O   0  0  0  0  0  0  0  0  0  0  0  0
    1.5375  -10.0667    0.0000 C   0  0  0  0  0  0  0  0  0  0  0  0
    6.9750  -12.5375    0.0000 O   0  0  0  0  0  0  0  0  0  0  0  0
    4.6750   -7.5292    0.0000 O   0  0  0  0  0  0  0  0  0  0  0  0
    7.8167  -11.9542    0.0000 O   0  0  0  0  0  0  0  0  0  0  0  0
    0.6917   -7.0042    0.0000 C   0  0  0  0  0  0  0  0  0  0  0  0
    2.1292   -7.8292    0.0000 C   0  0  0  0  0  0  0  0  0  0  0  0
    0.7000   -4.5292    0.0000 C   0  0  0  0  0  0  0  0  0  0  0  0
    0.7000   -6.1792    0.0000 C   0  0  0  0  0  0  0  0  0  0  0  0
    4.9667  -11.1292    0.0000 C   0  0  0  0  0  0  0  0  0  0  0  0
    5.6917   -9.8917    0.0000 C   0  0  0  0  0  0  0  0  0  0  0  0
    0.6917   -3.7042    0.0000 Cl  0  0  0  0  0  0  0  0  0  0  0  0
    5.8042  -12.5375    0.0000 C   0  0  0  0  0  0  0  0  0  0  0  0
    5.0625   -8.0292    0.0000 C   0  0  0  0  0  0  0  0  0  0  0  0
   -0.0208   -4.9500    0.0000 C   0  0  0  0  0  0  0  0  0  0  0  0
    1.4167   -4.9500    0.0000 C   0  0  0  0  0  0  0  0  0  0  0  0
   -0.0125   -5.7750    0.0000 C   0  0  0  0  0  0  0  0  0  0  0  0
    1.4125   -5.7750    0.0000 C   0  0  0  0  0  0  0  0  0  0  0  0
    2.1167  -10.3042    0.0000 C   0  0  0  0  0  0  0  0  0  0  0  0
    7.8250  -10.3042    0.0000 C   0  0  0  0  0  0  0  0  0  0  0  0
    3.5542   -6.1792    0.0000 C   0  0  0  0  0  0  0  0  0  0  0  0
    7.9917   -5.7500    0.0000 C   0  0  0  0  0  0  0  0  0  0  0  0
    6.5625   -5.7542    0.0000 C   0  0  0  0  0  0  0  0  0  0  0  0
    8.7042   -8.6375    0.0000 C   0  0  0  0  0  0  0  0  0  0  0  0
    4.6667   -6.7042    0.0000 C   0  0  0  0  0  0  0  0  0  0  0  0
    6.7542  -13.3292    0.0000 C   0  0  0  0  0  0  0  0  0  0  0  0
    2.1167  -11.1292    0.0000 C   0  0  0  0  0  0  0  0  0  0  0  0
    2.1279   -7.6542    0.0000 H   0  0  0  0  0  0  0  0  0  0  0  0
  2  1  1  0
  3  5  1  0
  2  4  1  0
  1  5  1  0
 16  6  1  0
  7  2  1  0
  8 10  1  0
  9 15  1  0
 10  9  1  0
 11  6  1  0
 12 13  1  0
 13  8  1  0
 14  7  1  0
 15 20  1  0
 12 16  1  6
 17 22  1  0
 18 11  1  0
 19 29  1  0
 20  1  1  0
 21 26  1  0
 22 21  1  0
 23  6  1  0
 24 21  1  0
 25 27  1  0
  8 26  1  1
 27 24  1  0
 28 14  1  0
 29 28  1  0
 30  4  1  0
 31 35  1  0
 32  3  2  0
 18 33  1  1
 34  9  2  0
 35 23  1  0
 36 14  2  0
 11 37  1  6
  1 38  1  6
 17 39  1  0
 19 40  1  0
 25 41  1  6
 42 30  1  0
  7 43  1  6
 44 52  2  0
 45 42  1  0
 10 46  1  1
 13 47  1  1
 48 44  1  0
 17 49  1  1
 19 50  1  1
 51 53  2  0
 52 54  1  0
 53 45  1  0
 54 45  2  0
 20 55  1  1
 27 56  1  1
 28 57  1  6
 58 33  1  0
 59 33  1  0
 35 60  1  1
 61 40  1  0
 62 39  1  0
 63 55  1  0
  3  4  1  0
 12 19  1  0
 44 51  1  0
 25 17  1  0
 18 31  1  0
  2 64  1  1
M  END

> <chembl_id>
CHEMBL40743

> <chembl_pref_name>
None


$$$$

     RDKit          2D

 63 67  0  0  1  0  0  0  0  0999 V2000
    2.1250   -9.4792    0.0000 C   0  0  0  0  0  0  0  0  0  0  0  0
    2.1292   -8.6542    0.0000 C   0  0  0  0  0  0  0  0  0  0  0  0
    0.6917   -8.6542    0.0000 C   0  0  0  0  0  0  0  0  0  0  0  0
    1.4125   -8.2417    0.0000 N   0  0  0  0  0  0  0  0  0  0  0  0
    1.3250   -9.2667    0.0000 O   0  0  0  0  0  0  0  0  0  0  0  0
    2.8417   -8.2417    0.0000 C   0  0  0  0  0  0  0  0  0  0  0  0
    6.5750   -8.2250    0.0000 C   0  0  0  0  0  0  0  0  0  0  0  0
    4.2625   -9.8917    0.0000 C   0  0  0  0  0  0  0  0  0  0  0  0
    3.5417  -11.1292    0.0000 C   0  0  0  0  0  0  0  0  0  0  0  0
    4.2542  -10.7167    0.0000 C   0  0  0  0  0  0  0  0  0  0  0  0
    4.9792   -8.6542    0.0000 C   0  0  0  0  0  0  0  0  0  0  0  0
    4.9792   -9.4792    0.0000 C   0  0  0  0  0  0  0  0  0  0  0  0
    2.8417   -7.4167    0.0000 C   0  0  0  0  0  0  0  0  0  0  0  0
    2.8292  -10.7167    0.0000 O   0  0  0  0  0  0  0  0  0  0  0  0
    6.5667   -7.4000    0.0000 C   0  0  0  0  0  0  0  0  0  0  0  0
    5.7792   -8.4417    0.0000 O   0  0  0  0  0  0  0  0  0  0  0  0
    6.3917  -11.9542    0.0000 C   0  0  0  0  0  0  0  0  0  0  0  0
    4.2667   -8.2417    0.0000 C   0  0  0  0  0  0  0  0  0  0  0  0
    2.8375   -9.8917    0.0000 C   0  0  0  0  0  0  0  0  0  0  0  0
    5.6875  -10.7167    0.0000 C   0  0  0  0  0  0  0  0  0  0  0  0
    5.6792  -11.5417    0.0000 C   0  0  0  0  0  0  0  0  0  0  0  0
    7.2875   -8.6375    0.0000 O   0  0  0  0  0  0  0  0  0  0  0  0
    6.4000  -10.3042    0.0000 O   0  0  0  0  0  0  0  0  0  0  0  0
    7.1042  -11.5417    0.0000 C   0  0  0  0  0  0  0  0  0  0  0  0
    7.2875   -6.9917    0.0000 C   0  0  0  0  0  0  0  0  0  0  0  0
    4.9750  -10.3042    0.0000 O   0  0  0  0  0  0  0  0  0  0  0  0
    7.1125  -10.7167    0.0000 C   0  0  0  0  0  0  0  0  0  0  0  0
    3.5542   -7.0042    0.0000 C   0  0  0  0  0  0  0  0  0  0  0  0
    4.2667   -7.4167    0.0000 C   0  0  0  0  0  0  0  0  0  0  0  0
    1.4125   -7.4167    0.0000 C   0  0  0  0  0  0  0  0  0  0  0  0
    8.0000   -7.4042    0.0000 C   0  0  0  0  0  0  0  0  0  0  0  0
   -0.1083   -8.4375    0.0000 O   0  0  0  0  0  0  0  0  0  0  0  0
    3.5417  -11.9542    0.0000 O   0  0  0  0  0  0  0  0  0  0  0  0
    7.9917   -8.2250    0.0000 C   0  0  0  0  0  0  0  0  0  0  0  0
    2.1292   -7.0042    0.0000 O   0  0  0  0  0  0  0  0  0  0  0  0
    1.5375  -10.0667    0.0000 C   0  0  0  0  0  0  0  0  0  0  0  0
    7.2792   -6.1667    0.0000 N   0  0  0  0  0  0  0  0  0  0  0  0
    5.8542   -6.9875    0.0000 O   0  0  0  0  0  0  0  0  0  0  0  0
    6.9750  -12.5375    0.0000 O   0  0  0  0  0  0  0  0  0  0  0  0
    4.6750   -7.5292    0.0000 O   0  0  0  0  0  0  0  0  0  0  0  0
    7.8167  -11.9542    0.0000 O   0  0  0  0  0  0  0  0  0  0  0  0
    0.6917   -7.0042    0.0000 C   0  0  0  0  0  0  0  0  0  0  0  0
    2.1292   -7.8292    0.0000 C   0  0  0  0  0  0  0  0  0  0  0  0
    0.7000   -4.5292    0.0000 C   0  0  0  0  0  0  0  0  0  0  0  0
    0.7000   -6.1792    0.0000 C   0  0  0  0  0  0  0  0  0  0  0  0
    4.9667  -11.1292    0.0000 C   0  0  0  0  0  0  0  0  0  0  0  0
    5.6917   -9.8917    0.0000 C   0  0  0  0  0  0  0  0  0  0  0  0
    0.6917   -3.7042    0.0000 Cl  0  0  0  0  0  0  0  0  0  0  0  0
    5.8042  -12.5375    0.0000 C   0  0  0  0  0  0  0  0  0  0  0  0
    5.0625   -8.0292    0.0000 C   0  0  0  0  0  0  0  0  0  0  0  0
   -0.0208   -4.9500    0.0000 C   0  0  0  0  0  0  0  0  0  0  0  0
    1.4167   -4.9500    0.0000 C   0  0  0  0  0  0  0  0  0  0  0  0
   -0.0125   -5.7750    0.0000 C   0  0  0  0  0  0  0  0  0  0  0  0
    1.4125   -5.7750    0.0000 C   0  0  0  0  0  0  0  0  0  0  0  0
    2.1167  -10.3042    0.0000 C   0  0  0  0  0  0  0  0  0  0  0  0
    7.8250  -10.3042    0.0000 C   0  0  0  0  0  0  0  0  0  0  0  0
    3.5542   -6.1792    0.0000 C   0  0  0  0  0  0  0  0  0  0  0  0
    8.7042   -8.6375    0.0000 C   0  0  0  0  0  0  0  0  0  0  0  0
    7.9917   -5.7500    0.0000 C   0  0  0  0  0  0  0  0  0  0  0  0
    4.6667   -6.7042    0.0000 C   0  0  0  0  0  0  0  0  0  0  0  0
    6.7542  -13.3292    0.0000 C   0  0  0  0  0  0  0  0  0  0  0  0
    2.1167  -11.1292    0.0000 C   0  0  0  0  0  0  0  0  0  0  0  0
    2.1279   -7.6542    0.0000 H   0  0  0  0  0  0  0  0  0  0  0  0
  2  1  1  0
  3  5  1  0
  2  4  1  0
  1  5  1  0
  6  2  1  0
 16  7  1  0
  8 10  1  0
  9 14  1  0
 10  9  1  0
 11 12  1  0
 12  8  1  0
 13  6  1  0
 14 19  1  0
 15  7  1  0
 11 16  1  6
 17 21  1  0
 18 29  1  0
 19  1  1  0
 20 26  1  0
 21 20  1  0
 22  7  1  0
 23 20  1  0
 24 27  1  0
 25 15  1  0
  8 26  1  1
 27 23  1  0
 28 13  1  0
 29 28  1  0
 30  4  1  0
 31 34  1  0
 32  3  2  0
 33  9  2  0
 34 22  1  0
 35 13  2  0
  1 36  1  6
 25 37  1  1
 15 38  1  6
 17 39  1  0
 18 40  1  0
 24 41  1  6
 42 30  1  0
  6 43  1  6
 44 52  2  0
 45 42  1  0
 10 46  1  1
 12 47  1  1
 48 44  1  0
 17 49  1  1
 18 50  1  1
 51 53  2  0
 52 54  1  0
 53 45  1  0
 54 45  2  0
 19 55  1  1
 27 56  1  1
 28 57  1  6
 34 58  1  1
 59 37  1  0
 60 40  1  0
 61 39  1  0
 62 55  1  0
  3  4  1  0
 11 18  1  0
 44 51  1  0
 24 17  1  0
 25 31  1  0
  2 63  1  1
M  END

> <chembl_id>
CHEMBL288396

> <chembl_pref_name>
None


$$$$

     RDKit          2D

 71 77  0  0  1  0  0  0  0  0999 V2000
    3.9417   -9.4792    0.0000 C   0  0  0  0  0  0  0  0  0  0  0  0
    3.9417   -8.6542    0.0000 C   0  0  0  0  0  0  0  0  0  0  0  0
    2.5042   -8.6542    0.0000 C   0  0  0  0  0  0  0  0  0  0  0  0
    3.2292   -8.2417    0.0000 N   0  0  0  0  0  0  0  0  0  0  0  0
    3.1417   -9.2667    0.0000 O   0  0  0  0  0  0  0  0  0  0  0  0
    8.3917   -8.2250    0.0000 C   0  0  0  0  0  0  0  0  0  0  0  0
    4.6625   -8.2417    0.0000 C   0  0  0  0  0  0  0  0  0  0  0  0
    6.0792   -9.8917    0.0000 C   0  0  0  0  0  0  0  0  0  0  0  0
    5.3625  -11.1292    0.0000 C   0  0  0  0  0  0  0  0  0  0  0  0
    6.0750  -10.7167    0.0000 C   0  0  0  0  0  0  0  0  0  0  0  0
    8.3875   -7.4000    0.0000 C   0  0  0  0  0  0  0  0  0  0  0  0
    6.8000   -8.6542    0.0000 C   0  0  0  0  0  0  0  0  0  0  0  0
    6.7917   -9.4792    0.0000 C   0  0  0  0  0  0  0  0  0  0  0  0
    9.1042   -6.9917    0.0000 C   0  0  0  0  0  0  0  0  0  0  0  0
    4.6625   -7.4167    0.0000 C   0  0  0  0  0  0  0  0  0  0  0  0
    4.6500  -10.7167    0.0000 O   0  0  0  0  0  0  0  0  0  0  0  0
    9.1000   -6.1667    0.0000 N   0  0  0  0  0  0  0  0  0  0  0  0
    7.5917   -8.4417    0.0000 O   0  0  0  0  0  0  0  0  0  0  0  0
    8.2042  -11.9542    0.0000 C   0  0  0  0  0  0  0  0  0  0  0  0
    6.0792   -8.2417    0.0000 C   0  0  0  0  0  0  0  0  0  0  0  0
    4.6542   -9.8917    0.0000 C   0  0  0  0  0  0  0  0  0  0  0  0
    7.5042  -10.7167    0.0000 C   0  0  0  0  0  0  0  0  0  0  0  0
    7.5000  -11.5417    0.0000 C   0  0  0  0  0  0  0  0  0  0  0  0
    9.1042   -8.6375    0.0000 O   0  0  0  0  0  0  0  0  0  0  0  0
    8.2167  -10.3042    0.0000 O   0  0  0  0  0  0  0  0  0  0  0  0
    8.9250  -11.5417    0.0000 C   0  0  0  0  0  0  0  0  0  0  0  0
    6.7917  -10.3042    0.0000 O   0  0  0  0  0  0  0  0  0  0  0  0
    8.9292  -10.7167    0.0000 C   0  0  0  0  0  0  0  0  0  0  0  0
    5.3667   -7.0042    0.0000 C   0  0  0  0  0  0  0  0  0  0  0  0
    6.0792   -7.4167    0.0000 C   0  0  0  0  0  0  0  0  0  0  0  0
    3.2292   -7.4167    0.0000 C   0  0  0  0  0  0  0  0  0  0  0  0
    9.8167   -7.4042    0.0000 C   0  0  0  0  0  0  0  0  0  0  0  0
    9.8042   -5.7500    0.0000 C   0  0  0  0  0  0  0  0  0  0  0  0
    8.3792   -5.7542    0.0000 C   0  0  0  0  0  0  0  0  0  0  0  0
   10.5625   -6.0792    0.0000 C   0  0  0  0  0  0  0  0  0  0  0  0
    8.3750   -4.9292    0.0000 C   0  0  0  0  0  0  0  0  0  0  0  0
    1.8000   -4.9500    0.0000 C   0  0  0  0  0  0  0  0  0  0  0  0
    1.7125   -8.4375    0.0000 O   0  0  0  0  0  0  0  0  0  0  0  0
   11.0417   -6.7375    0.0000 C   0  0  0  0  0  0  0  0  0  0  0  0
   11.3750   -5.9875    0.0000 C   0  0  0  0  0  0  0  0  0  0  0  0
    8.7792   -4.2167    0.0000 C   0  0  0  0  0  0  0  0  0  0  0  0
    7.9542   -4.2167    0.0000 C   0  0  0  0  0  0  0  0  0  0  0  0
    5.3542  -11.9542    0.0000 O   0  0  0  0  0  0  0  0  0  0  0  0
    9.8125   -8.2250    0.0000 C   0  0  0  0  0  0  0  0  0  0  0  0
    3.9417   -7.0042    0.0000 O   0  0  0  0  0  0  0  0  0  0  0  0
    2.5167   -4.5292    0.0000 C   0  0  0  0  0  0  0  0  0  0  0  0
    1.8042   -5.7750    0.0000 C   0  0  0  0  0  0  0  0  0  0  0  0
    7.6667   -6.9875    0.0000 O   0  0  0  0  0  0  0  0  0  0  0  0
    3.3542  -10.0667    0.0000 C   0  0  0  0  0  0  0  0  0  0  0  0
    3.2292   -4.9500    0.0000 C   0  0  0  0  0  0  0  0  0  0  0  0
    8.7917  -12.5375    0.0000 O   0  0  0  0  0  0  0  0  0  0  0  0
    6.4917   -7.5292    0.0000 O   0  0  0  0  0  0  0  0  0  0  0  0
    2.5167   -6.1792    0.0000 C   0  0  0  0  0  0  0  0  0  0  0  0
    2.5042   -7.0042    0.0000 C   0  0  0  0  0  0  0  0  0  0  0  0
    9.6375  -11.9542    0.0000 O   0  0  0  0  0  0  0  0  0  0  0  0
    1.0792   -4.5375    0.0000 Cl  0  0  0  0  0  0  0  0  0  0  0  0
    3.9417   -7.8292    0.0000 C   0  0  0  0  0  0  0  0  0  0  0  0
    2.5042   -3.7042    0.0000 F   0  0  0  0  0  0  0  0  0  0  0  0
    6.7875  -11.1292    0.0000 C   0  0  0  0  0  0  0  0  0  0  0  0
    3.2292   -5.7750    0.0000 C   0  0  0  0  0  0  0  0  0  0  0  0
    7.5042   -9.8917    0.0000 C   0  0  0  0  0  0  0  0  0  0  0  0
    7.6167  -12.5375    0.0000 C   0  0  0  0  0  0  0  0  0  0  0  0
    6.8792   -8.0292    0.0000 C   0  0  0  0  0  0  0  0  0  0  0  0
    3.9375  -10.3042    0.0000 C   0  0  0  0  0  0  0  0  0  0  0  0
    9.6417  -10.3042    0.0000 C   0  0  0  0  0  0  0  0  0  0  0  0
    5.3667   -6.1792    0.0000 C   0  0  0  0  0  0  0  0  0  0  0  0
   10.5167   -8.6375    0.0000 C   0  0  0  0  0  0  0  0  0  0  0  0
    6.4875   -6.7042    0.0000 C   0  0  0  0  0  0  0  0  0  0  0  0
    8.5750  -13.3292    0.0000 C   0  0  0  0  0  0  0  0  0  0  0  0
    3.9292  -11.1292    0.0000 C   0  0  0  0  0  0  0  0  0  0  0  0
    3.9442   -7.6542    0.0000 H   0  0  0  0  0  0  0  0  0  0  0  0
  2  1  1  0
  3  5  1  0
  2  4  1  0
  1  5  1  0
 18  6  1  0
  7  2  1  0
  8 10  1  0
  9 16  1  0
 10  9  1  0
 11  6  1  0
 12 13  1  0
 13  8  1  0
 14 11  1  0
 15  7  1  0
 16 21  1  0
 14 17  1  1
 12 18  1  6
 19 23  1  0
 20 30  1  0
 21  1  1  0
 22 27  1  0
 23 22  1  0
 24  6  1  0
 25 22  1  0
 26 28  1  0
  8 27  1  1
 28 25  1  0
 29 15  1  0
 30 29  1  0
 31  4  1  0
 32 44  1  0
 33 17  1  0
 34 17  1  0
 35 33  1  0
 36 34  1  0
 37 47  2  0
 38  3  2  0
 39 35  1  0
 40 35  1  0
 41 36  1  0
 42 36  1  0
 43  9  2  0
 44 24  1  0
 45 15  2  0
 46 50  2  0
 47 53  1  0
 11 48  1  6
  1 49  1  6
 50 60  1  0
 19 51  1  0
 20 52  1  0
 53 54  1  0
 54 31  1  0
 26 55  1  6
 56 37  1  0
  7 57  1  6
 58 46  1  0
 10 59  1  1
 60 53  2  0
 13 61  1  1
 19 62  1  1
 20 63  1  1
 21 64  1  1
 28 65  1  1
 29 66  1  6
 44 67  1  1
 68 52  1  0
 69 51  1  0
 70 64  1  0
  3  4  1  0
 12 20  1  0
 46 37  1  0
 26 19  1  0
 14 32  1  0
 41 42  1  0
 39 40  1  0
  2 71  1  1
M  END

> <chembl_id>
CHEMBL410940

> <chembl_pref_name>
None


$$$$

     RDKit          2D

 68 73  0  0  1  0  0  0  0  0999 V2000
    3.7042   -9.5375    0.0000 C   0  0  0  0  0  0  0  0  0  0  0  0
    7.9792  -10.3542    0.0000 N   0  0  0  0  0  0  0  0  0  0  0  0
    7.2667  -10.7667    0.0000 C   0  0  0  0  0  0  0  0  0  0  0  0
    3.7042   -8.7125    0.0000 C   0  0  0  0  0  0  0  0  0  0  0  0
    2.2750   -8.7042    0.0000 C   0  0  0  0  0  0  0  0  0  0  0  0
    2.9917   -8.3000    0.0000 N   0  0  0  0  0  0  0  0  0  0  0  0
    2.9042   -9.3167    0.0000 O   0  0  0  0  0  0  0  0  0  0  0  0
    5.8417   -9.9417    0.0000 C   0  0  0  0  0  0  0  0  0  0  0  0
    8.1542   -8.2792    0.0000 C   0  0  0  0  0  0  0  0  0  0  0  0
    4.4250   -8.3000    0.0000 C   0  0  0  0  0  0  0  0  0  0  0  0
    5.1250  -11.1875    0.0000 C   0  0  0  0  0  0  0  0  0  0  0  0
    8.7292  -10.6917    0.0000 C   0  0  0  0  0  0  0  0  0  0  0  0
    8.1500   -7.4542    0.0000 C   0  0  0  0  0  0  0  0  0  0  0  0
    8.8667   -7.0417    0.0000 C   0  0  0  0  0  0  0  0  0  0  0  0
    5.8375  -10.7667    0.0000 C   0  0  0  0  0  0  0  0  0  0  0  0
    6.5625   -8.7125    0.0000 C   0  0  0  0  0  0  0  0  0  0  0  0
    6.5542  -10.3542    0.0000 O   0  0  0  0  0  0  0  0  0  0  0  0
    6.5542   -9.5375    0.0000 C   0  0  0  0  0  0  0  0  0  0  0  0
    4.4250   -7.4750    0.0000 C   0  0  0  0  0  0  0  0  0  0  0  0
    4.4125  -10.7750    0.0000 O   0  0  0  0  0  0  0  0  0  0  0  0
    7.3292   -8.3042    0.0000 O   0  0  0  0  0  0  0  0  0  0  0  0
    5.8417   -8.3000    0.0000 C   0  0  0  0  0  0  0  0  0  0  0  0
    4.4167   -9.9500    0.0000 C   0  0  0  0  0  0  0  0  0  0  0  0
    8.8625   -6.2167    0.0000 N   0  0  0  0  0  0  0  0  0  0  0  0
    8.8667   -8.6917    0.0000 O   0  0  0  0  0  0  0  0  0  0  0  0
    9.2792  -10.0792    0.0000 O   0  0  0  0  0  0  0  0  0  0  0  0
    5.1292   -7.0542    0.0000 C   0  0  0  0  0  0  0  0  0  0  0  0
    5.8417   -7.4750    0.0000 C   0  0  0  0  0  0  0  0  0  0  0  0
    9.5792   -7.4542    0.0000 C   0  0  0  0  0  0  0  0  0  0  0  0
    2.9917   -7.4750    0.0000 C   0  0  0  0  0  0  0  0  0  0  0  0
    8.0667   -9.5292    0.0000 C   0  0  0  0  0  0  0  0  0  0  0  0
    7.2625  -11.5917    0.0000 O   0  0  0  0  0  0  0  0  0  0  0  0
    1.5625   -5.0042    0.0000 C   0  0  0  0  0  0  0  0  0  0  0  0
    1.4750   -8.4917    0.0000 O   0  0  0  0  0  0  0  0  0  0  0  0
    5.1167  -12.0125    0.0000 O   0  0  0  0  0  0  0  0  0  0  0  0
    8.9417  -11.4875    0.0000 O   0  0  0  0  0  0  0  0  0  0  0  0
    9.5750   -8.2792    0.0000 C   0  0  0  0  0  0  0  0  0  0  0  0
    3.7042   -7.0625    0.0000 O   0  0  0  0  0  0  0  0  0  0  0  0
    2.2792   -4.5875    0.0000 C   0  0  0  0  0  0  0  0  0  0  0  0
    8.8667   -9.3625    0.0000 C   0  0  0  0  0  0  0  0  0  0  0  0
    1.5667   -5.8292    0.0000 C   0  0  0  0  0  0  0  0  0  0  0  0
    9.5667   -5.8042    0.0000 C   0  0  0  0  0  0  0  0  0  0  0  0
    7.4292   -7.0417    0.0000 O   0  0  0  0  0  0  0  0  0  0  0  0
    3.1167  -10.1167    0.0000 C   0  0  0  0  0  0  0  0  0  0  0  0
    2.9917   -5.0042    0.0000 C   0  0  0  0  0  0  0  0  0  0  0  0
    6.2542   -7.5792    0.0000 O   0  0  0  0  0  0  0  0  0  0  0  0
    2.2792   -6.2292    0.0000 C   0  0  0  0  0  0  0  0  0  0  0  0
    2.2750   -7.0542    0.0000 C   0  0  0  0  0  0  0  0  0  0  0  0
    0.8417   -4.5917    0.0000 Cl  0  0  0  0  0  0  0  0  0  0  0  0
    3.7042   -7.8875    0.0000 C   0  0  0  0  0  0  0  0  0  0  0  0
    2.2750   -3.7625    0.0000 Cl  0  0  0  0  0  0  0  0  0  0  0  0
    6.5500  -11.1792    0.0000 C   0  0  0  0  0  0  0  0  0  0  0  0
    2.9917   -5.8292    0.0000 C   0  0  0  0  0  0  0  0  0  0  0  0
    7.2667   -9.9500    0.0000 C   0  0  0  0  0  0  0  0  0  0  0  0
    6.6417   -8.0792    0.0000 C   0  0  0  0  0  0  0  0  0  0  0  0
    8.1417   -5.8042    0.0000 C   0  0  0  0  0  0  0  0  0  0  0  0
    3.7000  -10.3542    0.0000 C   0  0  0  0  0  0  0  0  0  0  0  0
    5.1292   -6.2292    0.0000 C   0  0  0  0  0  0  0  0  0  0  0  0
    7.4792   -8.9417    0.0000 C   0  0  0  0  0  0  0  0  0  0  0  0
   10.2875   -8.6917    0.0000 C   0  0  0  0  0  0  0  0  0  0  0  0
    9.5625   -4.9792    0.0000 C   0  0  0  0  0  0  0  0  0  0  0  0
   10.2875   -6.2167    0.0000 C   0  0  0  0  0  0  0  0  0  0  0  0
    6.2500   -6.7542    0.0000 C   0  0  0  0  0  0  0  0  0  0  0  0
    3.6917  -11.1792    0.0000 C   0  0  0  0  0  0  0  0  0  0  0  0
   10.9917   -5.8042    0.0000 C   0  0  0  0  0  0  0  0  0  0  0  0
   10.2792   -4.5667    0.0000 C   0  0  0  0  0  0  0  0  0  0  0  0
   10.9917   -4.9792    0.0000 C   0  0  0  0  0  0  0  0  0  0  0  0
    3.7067   -7.7125    0.0000 H   0  0  0  0  0  0  0  0  0  0  0  0
  2  3  1  0
  3 17  1  0
  4  1  1  0
  5  7  1  0
  4  6  1  0
  1  7  1  0
  8 15  1  0
 21  9  1  0
 10  4  1  0
 11 20  1  0
 12  2  1  0
 13  9  1  0
 14 13  1  0
 15 11  1  0
 16 18  1  0
  8 17  1  1
 18  8  1  0
 19 10  1  0
 20 23  1  0
 16 21  1  6
 22 28  1  0
 23  1  1  0
 14 24  1  1
 25  9  1  0
 26 12  1  0
 27 19  1  0
 28 27  1  0
 29 37  1  0
 30  6  1  0
 31  2  1  0
 32  3  2  0
 33 41  2  0
 34  5  2  0
 35 11  2  0
 36 12  2  0
 37 25  1  0
 38 19  2  0
 39 45  2  0
 40 31  1  0
 41 47  1  0
 42 24  1  0
 13 43  1  6
  1 44  1  6
 45 53  1  0
 22 46  1  0
 47 48  1  0
 48 30  1  0
 49 33  1  0
 10 50  1  6
 51 39  1  0
 15 52  1  1
 53 47  2  0
 18 54  1  1
 22 55  1  1
 56 24  1  0
 23 57  1  1
 27 58  1  6
 31 59  1  1
 37 60  1  1
 61 42  1  0
 62 42  1  0
 63 46  1  0
 64 57  1  0
 65 62  1  0
 66 61  1  0
 67 65  1  0
  5  6  1  0
 16 22  1  0
 39 33  1  0
 40 26  1  0
 29 14  1  0
 67 66  1  0
  4 68  1  1
M  END

> <chembl_id>
CHEMBL418067

> <chembl_pref_name>
None


$$$$

     RDKit          2D

 51 53  0  0  1  0  0  0  0  0999 V2000
   -5.1194    5.6277    0.0000 C   0  0  0  0  0  0  0  0  0  0  0  0
   -5.8339    6.0402    0.0000 C   0  0  0  0  0  0  0  0  0  0  0  0
   -6.5484    5.6277    0.0000 C   0  0  0  0  0  0  0  0  0  0  0  0
   -6.5484    4.8027    0.0000 C   0  0  0  0  0  0  0  0  0  0  0  0
   -4.4050    6.0402    0.0000 C   0  0  0  0  0  0  0  0  0  0  0  0
   -3.6905    5.6277    0.0000 C   0  0  0  0  0  0  0  0  0  0  0  0
   -3.6905    4.8027    0.0000 C   0  0  0  0  0  0  0  0  0  0  0  0
   -4.4050    4.3902    0.0000 O   0  0  0  0  0  0  0  0  0  0  0  0
   -7.2629    4.3902    0.0000 C   0  0  0  0  0  0  0  0  0  0  0  0
   -7.2629    3.5652    0.0000 C   0  0  0  0  0  0  0  0  0  0  0  0
   -6.5484    3.1527    0.0000 C   0  0  0  0  0  0  0  0  0  0  0  0
   -5.8339    3.5652    0.0000 C   0  0  0  0  0  0  0  0  0  0  0  0
   -5.1195    3.1526    0.0000 C   0  0  0  0  0  0  0  0  0  0  0  0
   -4.4050    3.5651    0.0000 C   0  0  0  0  0  0  0  0  0  0  0  0
   -6.9609    6.3421    0.0000 C   0  0  0  0  0  0  0  0  0  0  0  0
   -7.3734    5.6277    0.0000 O   0  0  0  0  0  0  0  0  0  0  0  0
   -7.9774    4.8027    0.0000 C   0  0  0  0  0  0  0  0  0  0  0  0
   -7.9774    3.1527    0.0000 O   0  0  0  0  0  0  0  0  0  0  0  0
   -6.5484    2.3277    0.0000 C   0  0  0  0  0  0  0  0  0  0  0  0
   -5.8339    4.3902    0.0000 O   0  0  0  0  0  0  0  0  0  0  0  0
   -5.5320    2.4382    0.0000 O   0  0  0  0  0  0  0  0  0  0  0  0
   -4.9060    2.3558    0.0000 C   0  0  0  0  0  0  0  0  0  0  0  0
   -3.6906    3.1526    0.0000 C   0  0  0  0  0  0  0  0  0  0  0  0
   -2.9761    3.5651    0.0000 C   0  0  0  0  0  0  0  0  0  0  0  0
   -2.9760    4.3902    0.0000 O   0  0  0  0  0  0  0  0  0  0  0  0
   -2.9760    6.0402    0.0000 C   0  0  0  0  0  0  0  0  0  0  0  0
   -4.4050    6.8652    0.0000 O   0  0  0  0  0  0  0  0  0  0  0  0
   -3.6905    7.2777    0.0000 C   0  0  0  0  0  0  0  0  0  0  0  0
   -2.9760    6.8652    0.0000 O   0  0  0  0  0  0  0  0  0  0  0  0
   -2.2615    7.2777    0.0000 C   0  0  0  0  0  0  0  0  0  0  0  0
   -2.2615    8.1027    0.0000 C   0  0  0  0  0  0  0  0  0  0  0  0
   -2.9760    8.5152    0.0000 C   0  0  0  0  0  0  0  0  0  0  0  0
   -3.6905    8.1027    0.0000 C   0  0  0  0  0  0  0  0  0  0  0  0
   -1.5471    6.8652    0.0000 C   0  0  0  0  0  0  0  0  0  0  0  0
   -1.5470    8.5152    0.0000 O   0  0  0  0  0  0  0  0  0  0  0  0
   -2.5635    9.2297    0.0000 O   0  0  0  0  0  0  0  0  0  0  0  0
   -3.3885    9.2297    0.0000 C   0  0  0  0  0  0  0  0  0  0  0  0
   -2.9760    9.9441    0.0000 C   0  0  0  0  0  0  0  0  0  0  0  0
   -5.8339    6.8652    0.0000 O   0  0  0  0  0  0  0  0  0  0  0  0
   -6.5484    7.2777    0.0000 C   0  0  0  0  0  0  0  0  0  0  0  0
   -6.1359    7.9922    0.0000 O   0  0  0  0  0  0  0  0  0  0  0  0
   -6.5484    8.7066    0.0000 C   0  0  0  0  0  0  0  0  0  0  0  0
   -7.3734    8.7067    0.0000 C   0  0  0  0  0  0  0  0  0  0  0  0
   -7.7859    7.9922    0.0000 C   0  0  0  0  0  0  0  0  0  0  0  0
   -7.3734    7.2777    0.0000 C   0  0  0  0  0  0  0  0  0  0  0  0
   -7.7859    6.5632    0.0000 O   0  0  0  0  0  0  0  0  0  0  0  0
   -8.6109    7.9922    0.0000 N   0  0  0  0  0  0  0  0  0  0  0  0
   -9.0234    7.2777    0.0000 C   0  0  0  0  0  0  0  0  0  0  0  0
   -9.0234    8.7066    0.0000 C   0  0  0  0  0  0  0  0  0  0  0  0
   -6.1359    9.4211    0.0000 C   0  0  0  0  0  0  0  0  0  0  0  0
   -5.1194    4.8027    0.0000 C   0  0  0  0  0  0  0  0  0  0  0  0
  1  2  1  0
  2  3  1  0
  3  4  1  0
  1  5  1  0
  5  6  1  0
  6  7  1  0
  7  8  1  0
  4  9  1  0
  9 10  1  0
 10 11  1  0
 11 12  1  0
 12 13  1  0
 14  8  1  0
 13 14  1  0
  3 15  1  6
  3 16  1  0
  9 17  1  6
 10 18  2  0
 11 19  1  1
 12 20  1  1
 13 21  1  0
 13 22  1  6
 14 23  1  6
 23 24  1  0
  7 25  2  0
  6 26  1  1
  5 27  1  6
 28 27  1  1
 28 29  1  0
 33 28  1  0
 29 30  1  0
 30 31  1  0
 31 32  1  0
 32 33  1  0
 30 34  1  1
 31 35  1  6
 32 36  1  0
 32 37  1  1
 36 38  1  0
  2 39  1  6
 40 39  1  1
 40 41  1  0
 45 40  1  0
 41 42  1  0
 42 43  1  0
 43 44  1  0
 44 45  1  0
 45 46  1  1
 44 47  1  6
 47 48  1  0
 47 49  1  0
 42 50  1  6
  1 51  1  6
M  END

> <chembl_id>
CHEMBL406286

> <chembl_pref_name>
ERYTHROMYCIN A DIHYDRATE


$$$$

     RDKit          2D

 50 52  0  0  1  0  0  0  0  0999 V2000
    3.3931    3.8143    0.0000 C   0  0  0  0  0  0  0  0  0  0  0  0
    2.6786    4.2268    0.0000 C   0  0  0  0  0  0  0  0  0  0  0  0
    1.9641    3.8143    0.0000 C   0  0  0  0  0  0  0  0  0  0  0  0
    1.9641    2.9893    0.0000 C   0  0  0  0  0  0  0  0  0  0  0  0
    2.6786    2.5768    0.0000 O   0  0  0  0  0  0  0  0  0  0  0  0
    3.3930    2.9893    0.0000 C   0  0  0  0  0  0  0  0  0  0  0  0
    1.2496    2.5768    0.0000 C   0  0  0  0  0  0  0  0  0  0  0  0
    1.2496    1.7518    0.0000 C   0  0  0  0  0  0  0  0  0  0  0  0
    1.9641    1.3393    0.0000 O   0  0  0  0  0  0  0  0  0  0  0  0
    2.6786    1.7518    0.0000 C   0  0  0  0  0  0  0  0  0  0  0  0
    3.3930    1.3392    0.0000 C   0  0  0  0  0  0  0  0  0  0  0  0
    4.1075    1.7517    0.0000 C   0  0  0  0  0  0  0  0  0  0  0  0
    4.1075    2.5768    0.0000 C   0  0  0  0  0  0  0  0  0  0  0  0
    1.9641    0.5143    0.0000 C   0  0  0  0  0  0  0  0  0  0  0  0
    2.6785    0.1017    0.0000 C   0  0  0  0  0  0  0  0  0  0  0  0
    3.3930    0.5142    0.0000 C   0  0  0  0  0  0  0  0  0  0  0  0
    2.6785   -0.7233    0.0000 C   0  0  0  0  0  0  0  0  0  0  0  0
    3.3930   -1.1358    0.0000 C   0  0  0  0  0  0  0  0  0  0  0  0
    4.1074   -0.7233    0.0000 C   0  0  0  0  0  0  0  0  0  0  0  0
    4.1074    0.1017    0.0000 O   0  0  0  0  0  0  0  0  0  0  0  0
    3.3930   -1.9608    0.0000 C   0  0  0  0  0  0  0  0  0  0  0  0
    4.1074   -2.3733    0.0000 C   0  0  0  0  0  0  0  0  0  0  0  0
    4.8219   -1.9608    0.0000 C   0  0  0  0  0  0  0  0  0  0  0  0
    4.8219   -1.1358    0.0000 O   0  0  0  0  0  0  0  0  0  0  0  0
    4.1075    4.2268    0.0000 C   0  0  0  0  0  0  0  0  0  0  0  0
    2.6786    5.0518    0.0000 O   0  0  0  0  0  0  0  0  0  0  0  0
    1.2496    4.2268    0.0000 C   0  0  0  0  0  0  0  0  0  0  0  0
    0.5351    2.9893    0.0000 C   0  0  0  0  0  0  0  0  0  0  0  0
    0.5351    1.3393    0.0000 C   0  0  0  0  0  0  0  0  0  0  0  0
   -0.1794    1.7518    0.0000 C   0  0  0  0  0  0  0  0  0  0  0  0
    1.2496    0.1018    0.0000 O   0  0  0  0  0  0  0  0  0  0  0  0
    2.5961   -1.7473    0.0000 C   0  0  0  0  0  0  0  0  0  0  0  0
    2.8096   -2.5442    0.0000 O   0  0  0  0  0  0  0  0  0  0  0  0
    4.1074   -3.1983    0.0000 O   0  0  0  0  0  0  0  0  0  0  0  0
    5.5364   -2.3733    0.0000 C   0  0  0  0  0  0  0  0  0  0  0  0
    4.8220    1.3392    0.0000 O   0  0  0  0  0  0  0  0  0  0  0  0
    5.6470    1.3392    0.0000 C   0  0  0  0  0  0  0  0  0  0  0  0
    6.0595    0.6248    0.0000 C   0  0  0  0  0  0  0  0  0  0  0  0
    6.8845    0.6248    0.0000 C   0  0  0  0  0  0  0  0  0  0  0  0
    7.2970    1.3392    0.0000 C   0  0  0  0  0  0  0  0  0  0  0  0
    6.8845    2.0537    0.0000 C   0  0  0  0  0  0  0  0  0  0  0  0
    6.0595    2.0537    0.0000 O   0  0  0  0  0  0  0  0  0  0  0  0
    7.2970    2.7682    0.0000 C   0  0  0  0  0  0  0  0  0  0  0  0
    7.2970   -0.0897    0.0000 N   0  0  0  0  0  0  0  0  0  0  0  0
    8.1220   -0.0897    0.0000 C   0  0  0  0  0  0  0  0  0  0  0  0
    6.8845   -0.8042    0.0000 C   0  0  0  0  0  0  0  0  0  0  0  0
    5.6470   -0.0897    0.0000 O   0  0  0  0  0  0  0  0  0  0  0  0
    4.5200    3.2912    0.0000 O   0  0  0  0  0  0  0  0  0  0  0  0
    4.9325    2.5768    0.0000 C   0  0  0  0  0  0  0  0  0  0  0  0
    3.0231   -3.3411    0.0000 C   0  0  0  0  0  0  0  0  0  0  0  0
  1  2  1  0
  2  3  1  0
  3  4  1  0
  6  1  1  0
  4  7  1  0
  4  5  1  1
  7  8  1  0
  8  9  1  0
 13  6  1  0
 11 12  1  0
 12 13  1  0
  9 14  1  0
 11 10  1  6
 16 11  1  0
 14 15  1  0
 15 17  1  1
 16 15  1  0
 16 20  1  6
 19 20  1  6
 18 21  1  0
 19 18  1  0
 24 19  1  0
 21 22  1  0
 22 23  1  0
 23 24  1  0
  1 25  1  6
  2 26  2  0
  3 27  1  1
  7 28  1  6
  8 29  1  6
 29 30  1  0
 14 31  2  0
 21 32  1  1
 21 33  1  0
 22 34  1  6
 23 35  1  1
 12 36  1  6
 37 36  1  6
 37 38  1  0
 42 37  1  0
 38 39  1  0
 39 40  1  0
 40 41  1  0
 41 42  1  0
 41 43  1  6
 39 44  1  6
 44 45  1  0
 44 46  1  0
 38 47  1  1
 13 48  1  1
 13 49  1  0
 33 50  1  0
M  END

> <chembl_id>
CHEMBL3220708

> <chembl_pref_name>
BERYTHROMYCIN


$$$$

     RDKit          2D

 66 71  0  0  1  0  0  0  0  0999 V2000
   -1.3458   -3.2667    0.0000 C   0  0  0  0  0  0  0  0  0  0  0  0
    2.5167   -5.1042    0.0000 N   0  0  0  0  0  0  0  0  0  0  0  0
    2.3042   -4.3125    0.0000 C   0  0  0  0  0  0  0  0  0  0  0  0
   -1.3375   -2.4417    0.0000 C   0  0  0  0  0  0  0  0  0  0  0  0
   -2.7250   -2.8042    0.0000 C   0  0  0  0  0  0  0  0  0  0  0  0
   -2.1375   -2.2250    0.0000 N   0  0  0  0  0  0  0  0  0  0  0  0
   -2.0583   -3.6750    0.0000 O   0  0  0  0  0  0  0  0  0  0  0  0
    0.7917   -3.6875    0.0000 C   0  0  0  0  0  0  0  0  0  0  0  0
    3.0542   -2.0375    0.0000 C   0  0  0  0  0  0  0  0  0  0  0  0
   -0.6250   -2.0292    0.0000 C   0  0  0  0  0  0  0  0  0  0  0  0
    0.0750   -4.9167    0.0000 C   0  0  0  0  0  0  0  0  0  0  0  0
    2.2250   -5.8792    0.0000 C   0  0  0  0  0  0  0  0  0  0  0  0
    3.0417   -1.2125    0.0000 C   0  0  0  0  0  0  0  0  0  0  0  0
    3.7625   -0.7917    0.0000 C   0  0  0  0  0  0  0  0  0  0  0  0
    0.7917   -4.5042    0.0000 C   0  0  0  0  0  0  0  0  0  0  0  0
    1.5167   -2.4542    0.0000 C   0  0  0  0  0  0  0  0  0  0  0  0
    1.5042   -4.1000    0.0000 O   0  0  0  0  0  0  0  0  0  0  0  0
    1.5125   -3.2792    0.0000 C   0  0  0  0  0  0  0  0  0  0  0  0
   -0.6208   -1.2042    0.0000 C   0  0  0  0  0  0  0  0  0  0  0  0
   -0.6375   -4.5042    0.0000 O   0  0  0  0  0  0  0  0  0  0  0  0
    2.3417   -2.4542    0.0000 O   0  0  0  0  0  0  0  0  0  0  0  0
    0.8042   -2.0375    0.0000 C   0  0  0  0  0  0  0  0  0  0  0  0
   -0.6333   -3.6792    0.0000 C   0  0  0  0  0  0  0  0  0  0  0  0
    3.7542    0.0333    0.0000 N   0  0  0  0  0  0  0  0  0  0  0  0
    3.7667   -2.4417    0.0000 O   0  0  0  0  0  0  0  0  0  0  0  0
    2.8625   -6.4000    0.0000 O   0  0  0  0  0  0  0  0  0  0  0  0
    0.0917   -0.7917    0.0000 C   0  0  0  0  0  0  0  0  0  0  0  0
    0.8042   -1.2125    0.0000 C   0  0  0  0  0  0  0  0  0  0  0  0
    4.4792   -1.2042    0.0000 C   0  0  0  0  0  0  0  0  0  0  0  0
   -2.3500   -1.4250    0.0000 C   0  0  0  0  0  0  0  0  0  0  0  0
    3.3417   -5.1542    0.0000 C   0  0  0  0  0  0  0  0  0  0  0  0
    2.8875   -3.7250    0.0000 O   0  0  0  0  0  0  0  0  0  0  0  0
   -3.5500   -2.8000    0.0000 O   0  0  0  0  0  0  0  0  0  0  0  0
    0.0667   -5.7417    0.0000 O   0  0  0  0  0  0  0  0  0  0  0  0
    1.4250   -6.0917    0.0000 O   0  0  0  0  0  0  0  0  0  0  0  0
    4.4792   -2.0292    0.0000 C   0  0  0  0  0  0  0  0  0  0  0  0
   -1.3333   -0.7917    0.0000 O   0  0  0  0  0  0  0  0  0  0  0  0
    3.5542   -5.9500    0.0000 C   0  0  0  0  0  0  0  0  0  0  0  0
    4.4667    0.4500    0.0000 C   0  0  0  0  0  0  0  0  0  0  0  0
    2.4542   -0.6250    0.0000 O   0  0  0  0  0  0  0  0  0  0  0  0
   -1.7583   -3.9792    0.0000 C   0  0  0  0  0  0  0  0  0  0  0  0
    1.3875   -1.4500    0.0000 O   0  0  0  0  0  0  0  0  0  0  0  0
   -3.1458   -1.2042    0.0000 C   0  0  0  0  0  0  0  0  0  0  0  0
   -1.3458   -1.6167    0.0000 C   0  0  0  0  0  0  0  0  0  0  0  0
   -3.7833    1.1833    0.0000 C   0  0  0  0  0  0  0  0  0  0  0  0
   -3.3583   -0.4125    0.0000 C   0  0  0  0  0  0  0  0  0  0  0  0
    1.5042   -4.9292    0.0000 C   0  0  0  0  0  0  0  0  0  0  0  0
    2.2250   -3.6917    0.0000 C   0  0  0  0  0  0  0  0  0  0  0  0
   -3.9958    1.9708    0.0000 Cl  0  0  0  0  0  0  0  0  0  0  0  0
    1.6292   -2.0375    0.0000 C   0  0  0  0  0  0  0  0  0  0  0  0
   -2.9833    0.9625    0.0000 C   0  0  0  0  0  0  0  0  0  0  0  0
   -4.3708    0.5958    0.0000 C   0  0  0  0  0  0  0  0  0  0  0  0
   -2.7708    0.1708    0.0000 C   0  0  0  0  0  0  0  0  0  0  0  0
   -4.1583   -0.2042    0.0000 C   0  0  0  0  0  0  0  0  0  0  0  0
    3.0375    0.4375    0.0000 C   0  0  0  0  0  0  0  0  0  0  0  0
   -1.3500   -4.0875    0.0000 C   0  0  0  0  0  0  0  0  0  0  0  0
    0.1000    0.0333    0.0000 C   0  0  0  0  0  0  0  0  0  0  0  0
    3.7542   -4.4375    0.0000 C   0  0  0  0  0  0  0  0  0  0  0  0
    5.1917   -2.4417    0.0000 C   0  0  0  0  0  0  0  0  0  0  0  0
    5.2167    0.1208    0.0000 C   0  0  0  0  0  0  0  0  0  0  0  0
    4.5417    1.2708    0.0000 C   0  0  0  0  0  0  0  0  0  0  0  0
    1.3792   -0.6250    0.0000 C   0  0  0  0  0  0  0  0  0  0  0  0
   -1.3583   -4.9125    0.0000 C   0  0  0  0  0  0  0  0  0  0  0  0
    5.3500    1.4458    0.0000 C   0  0  0  0  0  0  0  0  0  0  0  0
    5.7667    0.7375    0.0000 C   0  0  0  0  0  0  0  0  0  0  0  0
   -1.4673   -1.4502    0.0000 H   0  0  0  0  0  0  0  0  0  0  0  0
  2  3  1  0
  3 17  1  0
  4  1  1  0
  5  7  1  0
  4  6  1  0
  1  7  1  0
  8 15  1  0
 21  9  1  0
 10  4  1  0
 11 20  1  0
 12  2  1  0
 13  9  1  0
 14 13  1  0
 15 11  1  0
 16 18  1  0
  8 17  1  1
 18  8  1  0
 19 10  1  0
 20 23  1  0
 16 21  1  6
 22 28  1  0
 23  1  1  0
 14 24  1  1
 25  9  1  0
 26 12  1  0
 27 19  1  0
 28 27  1  0
 29 36  1  0
 30  6  1  0
 31  2  1  0
 32  3  2  0
 33  5  2  0
 34 11  2  0
 35 12  2  0
 36 25  1  0
 37 19  2  0
 38 31  1  0
 39 24  1  0
 13 40  1  6
  1 41  1  6
 22 42  1  0
 43 30  1  0
 10 44  1  6
 45 52  1  0
 46 43  1  0
 15 47  1  1
 18 48  1  1
 49 45  1  0
 22 50  1  1
 51 53  1  0
 52 54  2  0
 53 46  2  0
 54 46  1  0
 55 24  1  0
 23 56  1  1
 27 57  1  6
 31 58  1  1
 36 59  1  1
 60 39  1  0
 61 39  1  0
 62 42  1  0
 63 56  1  0
 64 61  1  0
 65 60  1  0
  5  6  1  0
 16 22  1  0
 45 51  2  0
 38 26  1  0
 29 14  1  0
 64 65  1  0
  4 66  1  1
M  END

> <chembl_id>
CHEMBL273275

> <chembl_pref_name>
None


$$$$

     RDKit          2D

 64 68  0  0  1  0  0  0  0  0999 V2000
   -1.3458   -3.2667    0.0000 C   0  0  0  0  0  0  0  0  0  0  0  0
    2.5167   -5.1042    0.0000 N   0  0  0  0  0  0  0  0  0  0  0  0
    2.3042   -4.3125    0.0000 C   0  0  0  0  0  0  0  0  0  0  0  0
   -1.3375   -2.4417    0.0000 C   0  0  0  0  0  0  0  0  0  0  0  0
   -2.7250   -2.8042    0.0000 C   0  0  0  0  0  0  0  0  0  0  0  0
   -2.1375   -2.2250    0.0000 N   0  0  0  0  0  0  0  0  0  0  0  0
   -2.0583   -3.6750    0.0000 O   0  0  0  0  0  0  0  0  0  0  0  0
    0.7917   -3.6875    0.0000 C   0  0  0  0  0  0  0  0  0  0  0  0
    3.0542   -2.0375    0.0000 C   0  0  0  0  0  0  0  0  0  0  0  0
   -0.6250   -2.0292    0.0000 C   0  0  0  0  0  0  0  0  0  0  0  0
    0.0750   -4.9167    0.0000 C   0  0  0  0  0  0  0  0  0  0  0  0
    2.2250   -5.8792    0.0000 C   0  0  0  0  0  0  0  0  0  0  0  0
    3.0417   -1.2125    0.0000 C   0  0  0  0  0  0  0  0  0  0  0  0
    3.7625   -0.7917    0.0000 C   0  0  0  0  0  0  0  0  0  0  0  0
    0.7917   -4.5042    0.0000 C   0  0  0  0  0  0  0  0  0  0  0  0
    1.5167   -2.4542    0.0000 C   0  0  0  0  0  0  0  0  0  0  0  0
    1.5042   -4.1000    0.0000 O   0  0  0  0  0  0  0  0  0  0  0  0
    1.5125   -3.2792    0.0000 C   0  0  0  0  0  0  0  0  0  0  0  0
   -0.6208   -1.2042    0.0000 C   0  0  0  0  0  0  0  0  0  0  0  0
   -0.6375   -4.5042    0.0000 O   0  0  0  0  0  0  0  0  0  0  0  0
    2.3417   -2.4542    0.0000 O   0  0  0  0  0  0  0  0  0  0  0  0
    0.8042   -2.0375    0.0000 C   0  0  0  0  0  0  0  0  0  0  0  0
   -0.6333   -3.6792    0.0000 C   0  0  0  0  0  0  0  0  0  0  0  0
    3.7667   -2.4417    0.0000 O   0  0  0  0  0  0  0  0  0  0  0  0
    3.7542    0.0333    0.0000 N   0  0  0  0  0  0  0  0  0  0  0  0
    2.8625   -6.4000    0.0000 O   0  0  0  0  0  0  0  0  0  0  0  0
    0.0917   -0.7917    0.0000 C   0  0  0  0  0  0  0  0  0  0  0  0
    0.8042   -1.2125    0.0000 C   0  0  0  0  0  0  0  0  0  0  0  0
    4.4792   -1.2042    0.0000 C   0  0  0  0  0  0  0  0  0  0  0  0
   -2.3500   -1.4250    0.0000 C   0  0  0  0  0  0  0  0  0  0  0  0
    3.3417   -5.1542    0.0000 C   0  0  0  0  0  0  0  0  0  0  0  0
    2.8875   -3.7250    0.0000 O   0  0  0  0  0  0  0  0  0  0  0  0
   -3.5500   -2.8000    0.0000 O   0  0  0  0  0  0  0  0  0  0  0  0
    0.0667   -5.7417    0.0000 O   0  0  0  0  0  0  0  0  0  0  0  0
    1.4250   -6.0917    0.0000 O   0  0  0  0  0  0  0  0  0  0  0  0
    4.4792   -2.0292    0.0000 C   0  0  0  0  0  0  0  0  0  0  0  0
   -1.3333   -0.7917    0.0000 O   0  0  0  0  0  0  0  0  0  0  0  0
    3.5542   -5.9500    0.0000 C   0  0  0  0  0  0  0  0  0  0  0  0
    2.4542   -0.6250    0.0000 O   0  0  0  0  0  0  0  0  0  0  0  0
   -1.7583   -3.9792    0.0000 C   0  0  0  0  0  0  0  0  0  0  0  0
    4.4667    0.4500    0.0000 C   0  0  0  0  0  0  0  0  0  0  0  0
    1.3875   -1.4500    0.0000 O   0  0  0  0  0  0  0  0  0  0  0  0
   -3.1458   -1.2042    0.0000 C   0  0  0  0  0  0  0  0  0  0  0  0
   -1.3458   -1.6167    0.0000 C   0  0  0  0  0  0  0  0  0  0  0  0
   -3.7833    1.1833    0.0000 C   0  0  0  0  0  0  0  0  0  0  0  0
   -3.3583   -0.4125    0.0000 C   0  0  0  0  0  0  0  0  0  0  0  0
    1.5042   -4.9292    0.0000 C   0  0  0  0  0  0  0  0  0  0  0  0
    2.2250   -3.6917    0.0000 C   0  0  0  0  0  0  0  0  0  0  0  0
   -3.9958    1.9708    0.0000 Cl  0  0  0  0  0  0  0  0  0  0  0  0
    1.6292   -2.0375    0.0000 C   0  0  0  0  0  0  0  0  0  0  0  0
   -2.9833    0.9625    0.0000 C   0  0  0  0  0  0  0  0  0  0  0  0
   -4.3708    0.5958    0.0000 C   0  0  0  0  0  0  0  0  0  0  0  0
   -2.7708    0.1708    0.0000 C   0  0  0  0  0  0  0  0  0  0  0  0
   -4.1583   -0.2042    0.0000 C   0  0  0  0  0  0  0  0  0  0  0  0
    3.0375    0.4375    0.0000 C   0  0  0  0  0  0  0  0  0  0  0  0
   -1.3500   -4.0875    0.0000 C   0  0  0  0  0  0  0  0  0  0  0  0
    0.1000    0.0333    0.0000 C   0  0  0  0  0  0  0  0  0  0  0  0
    3.7542   -4.4375    0.0000 C   0  0  0  0  0  0  0  0  0  0  0  0
    5.1917   -2.4417    0.0000 C   0  0  0  0  0  0  0  0  0  0  0  0
    5.1792    0.0458    0.0000 C   0  0  0  0  0  0  0  0  0  0  0  0
    4.4625    1.2750    0.0000 C   0  0  0  0  0  0  0  0  0  0  0  0
    1.3792   -0.6250    0.0000 C   0  0  0  0  0  0  0  0  0  0  0  0
   -1.3583   -4.9125    0.0000 C   0  0  0  0  0  0  0  0  0  0  0  0
   -1.4673   -1.4502    0.0000 H   0  0  0  0  0  0  0  0  0  0  0  0
  2  3  1  0
  3 17  1  0
  4  1  1  0
  5  7  1  0
  4  6  1  0
  1  7  1  0
  8 15  1  0
 21  9  1  0
 10  4  1  0
 11 20  1  0
 12  2  1  0
 13  9  1  0
 14 13  1  0
 15 11  1  0
 16 18  1  0
  8 17  1  1
 18  8  1  0
 19 10  1  0
 20 23  1  0
 16 21  1  6
 22 28  1  0
 23  1  1  0
 24  9  1  0
 14 25  1  1
 26 12  1  0
 27 19  1  0
 28 27  1  0
 29 36  1  0
 30  6  1  0
 31  2  1  0
 32  3  2  0
 33  5  2  0
 34 11  2  0
 35 12  2  0
 36 24  1  0
 37 19  2  0
 38 31  1  0
 13 39  1  6
  1 40  1  6
 41 25  1  0
 22 42  1  0
 43 30  1  0
 10 44  1  6
 45 52  1  0
 46 43  1  0
 15 47  1  1
 18 48  1  1
 49 45  1  0
 22 50  1  1
 51 53  1  0
 52 54  2  0
 53 46  2  0
 54 46  1  0
 55 25  1  0
 23 56  1  1
 27 57  1  6
 31 58  1  1
 36 59  1  1
 60 41  1  0
 61 41  1  0
 62 42  1  0
 63 56  1  0
  5  6  1  0
 16 22  1  0
 45 51  2  0
 38 26  1  0
 29 14  1  0
  4 64  1  1
M  END

> <chembl_id>
CHEMBL275467

> <chembl_pref_name>
None


$$$$

     RDKit          2D

 66 71  0  0  1  0  0  0  0  0999 V2000
   -0.8583   -2.7042    0.0000 C   0  0  0  0  0  0  0  0  0  0  0  0
    3.0000   -4.5500    0.0000 N   0  0  0  0  0  0  0  0  0  0  0  0
    2.7875   -3.7542    0.0000 C   0  0  0  0  0  0  0  0  0  0  0  0
   -0.8583   -1.8792    0.0000 C   0  0  0  0  0  0  0  0  0  0  0  0
   -2.2458   -2.2417    0.0000 C   0  0  0  0  0  0  0  0  0  0  0  0
   -1.6583   -1.6667    0.0000 N   0  0  0  0  0  0  0  0  0  0  0  0
   -1.5750   -3.1167    0.0000 O   0  0  0  0  0  0  0  0  0  0  0  0
    1.2792   -3.1292    0.0000 C   0  0  0  0  0  0  0  0  0  0  0  0
    3.5375   -1.4792    0.0000 C   0  0  0  0  0  0  0  0  0  0  0  0
   -0.1458   -1.4667    0.0000 C   0  0  0  0  0  0  0  0  0  0  0  0
    0.5542   -4.3625    0.0000 C   0  0  0  0  0  0  0  0  0  0  0  0
    2.7042   -5.3167    0.0000 C   0  0  0  0  0  0  0  0  0  0  0  0
    1.2750   -3.9542    0.0000 C   0  0  0  0  0  0  0  0  0  0  0  0
    3.5292   -0.6542    0.0000 C   0  0  0  0  0  0  0  0  0  0  0  0
    2.0000   -1.8917    0.0000 C   0  0  0  0  0  0  0  0  0  0  0  0
    1.9917   -3.5417    0.0000 O   0  0  0  0  0  0  0  0  0  0  0  0
    1.9917   -2.7167    0.0000 C   0  0  0  0  0  0  0  0  0  0  0  0
   -0.1375   -0.6417    0.0000 C   0  0  0  0  0  0  0  0  0  0  0  0
    4.2417   -0.2375    0.0000 C   0  0  0  0  0  0  0  0  0  0  0  0
   -0.1583   -3.9417    0.0000 O   0  0  0  0  0  0  0  0  0  0  0  0
    2.8250   -1.8917    0.0000 O   0  0  0  0  0  0  0  0  0  0  0  0
    1.2875   -1.4792    0.0000 C   0  0  0  0  0  0  0  0  0  0  0  0
   -0.1500   -3.1167    0.0000 C   0  0  0  0  0  0  0  0  0  0  0  0
    4.2542   -1.8875    0.0000 O   0  0  0  0  0  0  0  0  0  0  0  0
    3.3417   -5.8417    0.0000 O   0  0  0  0  0  0  0  0  0  0  0  0
    4.2417    0.5875    0.0000 N   0  0  0  0  0  0  0  0  0  0  0  0
    0.5792   -0.2375    0.0000 C   0  0  0  0  0  0  0  0  0  0  0  0
    1.2917   -0.6542    0.0000 C   0  0  0  0  0  0  0  0  0  0  0  0
   -1.8708   -0.8667    0.0000 C   0  0  0  0  0  0  0  0  0  0  0  0
    4.9625   -0.6500    0.0000 C   0  0  0  0  0  0  0  0  0  0  0  0
    3.8292   -4.5917    0.0000 C   0  0  0  0  0  0  0  0  0  0  0  0
    3.3667   -3.1667    0.0000 O   0  0  0  0  0  0  0  0  0  0  0  0
    5.7042    0.6833    0.0000 C   0  0  0  0  0  0  0  0  0  0  0  0
   -2.5000    1.5208    0.0000 C   0  0  0  0  0  0  0  0  0  0  0  0
   -3.0708   -2.2417    0.0000 O   0  0  0  0  0  0  0  0  0  0  0  0
    4.9500    1.0083    0.0000 C   0  0  0  0  0  0  0  0  0  0  0  0
    5.7917   -0.1417    0.0000 C   0  0  0  0  0  0  0  0  0  0  0  0
    6.3667    1.1708    0.0000 C   0  0  0  0  0  0  0  0  0  0  0  0
    0.5542   -5.1875    0.0000 O   0  0  0  0  0  0  0  0  0  0  0  0
    1.9042   -5.5292    0.0000 O   0  0  0  0  0  0  0  0  0  0  0  0
    4.9625   -1.4750    0.0000 C   0  0  0  0  0  0  0  0  0  0  0  0
   -0.8458   -0.2292    0.0000 O   0  0  0  0  0  0  0  0  0  0  0  0
   -3.2958    1.7375    0.0000 C   0  0  0  0  0  0  0  0  0  0  0  0
    4.0375   -5.3917    0.0000 C   0  0  0  0  0  0  0  0  0  0  0  0
   -2.2875    0.7250    0.0000 C   0  0  0  0  0  0  0  0  0  0  0  0
    2.9417   -0.0667    0.0000 O   0  0  0  0  0  0  0  0  0  0  0  0
   -1.2750   -3.4167    0.0000 C   0  0  0  0  0  0  0  0  0  0  0  0
   -3.8833    1.1500    0.0000 C   0  0  0  0  0  0  0  0  0  0  0  0
    1.8667   -0.8917    0.0000 O   0  0  0  0  0  0  0  0  0  0  0  0
   -2.8750    0.1458    0.0000 C   0  0  0  0  0  0  0  0  0  0  0  0
   -2.6625   -0.6500    0.0000 C   0  0  0  0  0  0  0  0  0  0  0  0
   -1.9208    2.1083    0.0000 Cl  0  0  0  0  0  0  0  0  0  0  0  0
   -0.8583   -1.0542    0.0000 C   0  0  0  0  0  0  0  0  0  0  0  0
   -3.5083    2.5333    0.0000 F   0  0  0  0  0  0  0  0  0  0  0  0
    1.9875   -4.3667    0.0000 C   0  0  0  0  0  0  0  0  0  0  0  0
   -3.6708    0.3583    0.0000 C   0  0  0  0  0  0  0  0  0  0  0  0
    2.7042   -3.1375    0.0000 C   0  0  0  0  0  0  0  0  0  0  0  0
    2.1125   -1.4792    0.0000 C   0  0  0  0  0  0  0  0  0  0  0  0
    3.5167    0.9958    0.0000 C   0  0  0  0  0  0  0  0  0  0  0  0
   -0.8708   -3.5292    0.0000 C   0  0  0  0  0  0  0  0  0  0  0  0
    0.5792    0.5875    0.0000 C   0  0  0  0  0  0  0  0  0  0  0  0
    4.2375   -3.8792    0.0000 C   0  0  0  0  0  0  0  0  0  0  0  0
    5.6792   -1.8875    0.0000 C   0  0  0  0  0  0  0  0  0  0  0  0
    1.8667   -0.0667    0.0000 C   0  0  0  0  0  0  0  0  0  0  0  0
   -0.8708   -4.3542    0.0000 C   0  0  0  0  0  0  0  0  0  0  0  0
   -0.9905   -0.8880    0.0000 H   0  0  0  0  0  0  0  0  0  0  0  0
  2  3  1  0
  3 16  1  0
  4  1  1  0
  5  7  1  0
  4  6  1  0
  1  7  1  0
  8 13  1  0
 21  9  1  0
 10  4  1  0
 11 20  1  0
 12  2  1  0
 13 11  1  0
 14  9  1  0
 15 17  1  0
  8 16  1  1
 17  8  1  0
 18 10  1  0
 19 14  1  0
 20 23  1  0
 15 21  1  6
 22 28  1  0
 23  1  1  0
 24  9  1  0
 25 12  1  0
 19 26  1  1
 27 18  1  0
 28 27  1  0
 29  6  1  0
 30 41  1  0
 31  2  1  0
 32  3  2  0
 33 36  1  0
 34 45  1  0
 35  5  2  0
 36 26  1  0
 37 33  1  0
 38 33  1  0
 39 11  2  0
 40 12  2  0
 41 24  1  0
 42 18  2  0
 43 48  1  0
 44 31  1  0
 45 50  2  0
 14 46  1  6
  1 47  1  6
 48 56  2  0
 22 49  1  0
 50 51  1  0
 51 29  1  0
 52 34  1  0
 10 53  1  6
 54 43  1  0
 13 55  1  1
 56 50  1  0
 17 57  1  1
 22 58  1  1
 59 26  1  0
 23 60  1  1
 27 61  1  6
 31 62  1  1
 41 63  1  1
 64 49  1  0
 65 60  1  0
  5  6  1  0
 15 22  1  0
 43 34  2  0
 44 25  1  0
 30 19  1  0
 37 38  1  0
  4 66  1  1
M  END

> <chembl_id>
CHEMBL12282

> <chembl_pref_name>
None


$$$$

     RDKit          2D

 55 57  0  0  0  0  0  0  0  0999 V2000
   13.1165  -12.9715    0.0000 C   0  0  0  0  0  0  0  0  0  0  0  0
   10.9692  -14.1820    0.0000 C   0  0  0  0  0  0  0  0  0  0  0  0
    9.5307  -14.1820    0.0000 C   0  0  0  0  0  0  0  0  0  0  0  0
    8.8218  -12.1299    0.0000 C   0  0  0  0  0  0  0  0  0  0  0  0
   10.2520  -14.5965    0.0000 C   0  0  0  0  0  0  0  0  0  0  0  0
   13.1456  -12.1465    0.0000 C   0  0  0  0  0  0  0  0  0  0  0  0
   11.6780  -12.9548    0.0000 C   0  0  0  0  0  0  0  0  0  0  0  0
   10.9567  -13.3570    0.0000 C   0  0  0  0  0  0  0  0  0  0  0  0
    9.5307  -10.8904    0.0000 C   0  0  0  0  0  0  0  0  0  0  0  0
    9.5307  -13.3570    0.0000 O   0  0  0  0  0  0  0  0  0  0  0  0
    9.5307  -11.7154    0.0000 C   0  0  0  0  0  0  0  0  0  0  0  0
   10.2437  -10.4841    0.0000 C   0  0  0  0  0  0  0  0  0  0  0  0
   12.3911  -13.3570    0.0000 O   0  0  0  0  0  0  0  0  0  0  0  0
   12.4449  -16.6445    0.0000 C   0  0  0  0  0  0  0  0  0  0  0  0
   13.8711  -11.7568    0.0000 C   0  0  0  0  0  0  0  0  0  0  0  0
   11.6780  -12.1299    0.0000 C   0  0  0  0  0  0  0  0  0  0  0  0
   11.6947  -15.4215    0.0000 C   0  0  0  0  0  0  0  0  0  0  0  0
   12.4201  -15.8195    0.0000 C   0  0  0  0  0  0  0  0  0  0  0  0
   13.8213  -13.4150    0.0000 O   0  0  0  0  0  0  0  0  0  0  0  0
   10.9816  -15.8526    0.0000 O   0  0  0  0  0  0  0  0  0  0  0  0
    8.8218  -12.9548    0.0000 C   0  0  0  0  0  0  0  0  0  0  0  0
   11.7402  -17.0714    0.0000 C   0  0  0  0  0  0  0  0  0  0  0  0
   11.6698  -14.5965    0.0000 O   0  0  0  0  0  0  0  0  0  0  0  0
   11.0147  -16.6776    0.0000 C   0  0  0  0  0  0  0  0  0  0  0  0
   10.9567  -10.8904    0.0000 C   0  0  0  0  0  0  0  0  0  0  0  0
   10.9567  -11.7154    0.0000 C   0  0  0  0  0  0  0  0  0  0  0  0
   14.5716  -12.1962    0.0000 C   0  0  0  0  0  0  0  0  0  0  0  0
   13.9042  -10.9318    0.0000 N   0  0  0  0  0  0  0  0  0  0  0  0
    8.8300  -14.5965    0.0000 O   0  0  0  0  0  0  0  0  0  0  0  0
   14.5467  -13.0212    0.0000 C   0  0  0  0  0  0  0  0  0  0  0  0
   10.2437   -9.6591    0.0000 N   0  0  0  0  0  0  0  0  0  0  0  0
    8.3077  -11.4832    0.0000 O   0  0  0  0  0  0  0  0  0  0  0  0
   12.4449  -11.7071    0.0000 O   0  0  0  0  0  0  0  0  0  0  0  0
   11.8937  -11.4459    0.0000 O   0  0  0  0  0  0  0  0  0  0  0  0
   10.2437  -12.1299    0.0000 O   0  0  0  0  0  0  0  0  0  0  0  0
   12.4574  -17.4694    0.0000 O   0  0  0  0  0  0  0  0  0  0  0  0
   11.7568  -17.8964    0.0000 O   0  0  0  0  0  0  0  0  0  0  0  0
    8.0963  -12.5320    0.0000 C   0  0  0  0  0  0  0  0  0  0  0  0
   10.2561  -15.4215    0.0000 C   0  0  0  0  0  0  0  0  0  0  0  0
   10.2437  -12.9466    0.0000 C   0  0  0  0  0  0  0  0  0  0  0  0
    8.8218  -10.4841    0.0000 C   0  0  0  0  0  0  0  0  0  0  0  0
   13.1456  -16.2174    0.0000 C   0  0  0  0  0  0  0  0  0  0  0  0
   12.3911  -12.5404    0.0000 C   0  0  0  0  0  0  0  0  0  0  0  0
    8.1087  -13.3653    0.0000 C   0  0  0  0  0  0  0  0  0  0  0  0
   10.3058  -17.1171    0.0000 C   0  0  0  0  0  0  0  0  0  0  0  0
   11.6780  -10.4841    0.0000 C   0  0  0  0  0  0  0  0  0  0  0  0
   13.2036  -10.4966    0.0000 C   0  0  0  0  0  0  0  0  0  0  0  0
   14.6338  -10.5463    0.0000 C   0  0  0  0  0  0  0  0  0  0  0  0
   15.2432  -13.4607    0.0000 C   0  0  0  0  0  0  0  0  0  0  0  0
   13.1829  -17.8673    0.0000 C   0  0  0  0  0  0  0  0  0  0  0  0
    8.1087  -14.1820    0.0000 C   0  0  0  0  0  0  0  0  0  0  0  0
   12.4076  -15.0028    0.0000 H   0  0  0  0  0  0  0  0  0  0  0  0
   13.1083  -13.7965    0.0000 H   0  0  0  0  0  0  0  0  0  0  0  0
   10.9545   -9.2487    0.0000 O   0  0  0  0  0  0  0  0  0  0  0  0
   10.9545   -8.4279    0.0000 C   0  0  0  0  0  0  0  0  0  0  0  0
  3  5  1  0
  4 11  1  0
  5  2  1  0
  6  1  1  0
  7 13  1  6
  8  7  1  0
  9 12  1  0
 10  3  1  0
 11  9  1  0
 12 25  1  0
 13  1  1  0
 14 18  1  0
 15  6  1  0
 16  7  1  0
 17 23  1  0
 18 17  1  0
 19  1  1  0
 20 17  1  0
 21 10  1  0
 22 24  1  0
  2 23  1  6
 24 20  1  0
 25 26  1  0
 26 16  1  0
 27 30  1  0
 15 28  1  1
 29  3  2  0
 30 19  1  0
 31 12  2  0
  4 32  1  1
  6 33  1  6
 16 34  1  1
 11 35  1  1
 14 36  1  1
 22 37  1  1
 38  4  1  0
  5 39  1  1
  8 40  1  6
  9 41  1  1
 42 14  1  0
 43 16  1  0
 21 44  1  6
 24 45  1  6
 25 46  1  6
 47 28  1  0
 48 28  1  0
 30 49  1  1
 50 36  1  0
 51 44  1  0
 17 52  1  6
  1 53  1  6
 27 15  1  0
  4 21  1  0
 22 14  1  0
 31 54  1  0
  2  8  1  0
 54 55  1  0
M  END

> <chembl_id>
CHEMBL1774286

> <chembl_pref_name>
None


$$$$

     RDKit          2D

 61 64  0  0  0  0  0  0  0  0999 V2000
   -0.1451   -1.8160    0.0000 C   0  0  0  0  0  0  0  0  0  0  0  0
   -2.2928   -3.0267    0.0000 C   0  0  0  0  0  0  0  0  0  0  0  0
   -3.7315   -3.0267    0.0000 C   0  0  0  0  0  0  0  0  0  0  0  0
   -4.4404   -0.9744    0.0000 C   0  0  0  0  0  0  0  0  0  0  0  0
   -3.0100   -3.4412    0.0000 C   0  0  0  0  0  0  0  0  0  0  0  0
   -0.1161   -0.9909    0.0000 C   0  0  0  0  0  0  0  0  0  0  0  0
   -1.5838   -1.7994    0.0000 C   0  0  0  0  0  0  0  0  0  0  0  0
   -2.3052   -2.2016    0.0000 C   0  0  0  0  0  0  0  0  0  0  0  0
   -3.7315    0.2654    0.0000 C   0  0  0  0  0  0  0  0  0  0  0  0
   -3.7315   -2.2016    0.0000 O   0  0  0  0  0  0  0  0  0  0  0  0
   -3.7315   -0.5597    0.0000 C   0  0  0  0  0  0  0  0  0  0  0  0
   -3.0183    0.6717    0.0000 C   0  0  0  0  0  0  0  0  0  0  0  0
   -0.8707   -2.2016    0.0000 O   0  0  0  0  0  0  0  0  0  0  0  0
   -0.8167   -5.4894    0.0000 C   0  0  0  0  0  0  0  0  0  0  0  0
    0.6095   -0.6012    0.0000 C   0  0  0  0  0  0  0  0  0  0  0  0
   -1.5838   -0.9744    0.0000 C   0  0  0  0  0  0  0  0  0  0  0  0
   -1.5672   -4.2663    0.0000 C   0  0  0  0  0  0  0  0  0  0  0  0
   -0.8416   -4.6643    0.0000 C   0  0  0  0  0  0  0  0  0  0  0  0
    0.5597   -2.2596    0.0000 O   0  0  0  0  0  0  0  0  0  0  0  0
   -2.2804   -4.6975    0.0000 O   0  0  0  0  0  0  0  0  0  0  0  0
   -4.4404   -1.7994    0.0000 C   0  0  0  0  0  0  0  0  0  0  0  0
   -1.5216   -5.9164    0.0000 C   0  0  0  0  0  0  0  0  0  0  0  0
   -1.5921   -3.4412    0.0000 O   0  0  0  0  0  0  0  0  0  0  0  0
   -2.2471   -5.5226    0.0000 C   0  0  0  0  0  0  0  0  0  0  0  0
   -2.3052    0.2654    0.0000 C   0  0  0  0  0  0  0  0  0  0  0  0
   -2.3052   -0.5597    0.0000 C   0  0  0  0  0  0  0  0  0  0  0  0
    1.3102   -1.0406    0.0000 C   0  0  0  0  0  0  0  0  0  0  0  0
    0.6426    0.2239    0.0000 N   0  0  0  0  0  0  0  0  0  0  0  0
   -4.4322   -3.4412    0.0000 O   0  0  0  0  0  0  0  0  0  0  0  0
    1.2853   -1.8657    0.0000 C   0  0  0  0  0  0  0  0  0  0  0  0
   -3.0183    1.4968    0.0000 N   0  0  0  0  0  0  0  0  0  0  0  0
   -4.9546   -0.3276    0.0000 O   0  0  0  0  0  0  0  0  0  0  0  0
   -0.8167   -0.5515    0.0000 O   0  0  0  0  0  0  0  0  0  0  0  0
   -1.3682   -0.2903    0.0000 O   0  0  0  0  0  0  0  0  0  0  0  0
   -3.0183   -0.9744    0.0000 O   0  0  0  0  0  0  0  0  0  0  0  0
   -0.8043   -6.3144    0.0000 O   0  0  0  0  0  0  0  0  0  0  0  0
   -1.5050   -6.7415    0.0000 O   0  0  0  0  0  0  0  0  0  0  0  0
   -5.1660   -1.3765    0.0000 C   0  0  0  0  0  0  0  0  0  0  0  0
   -3.0059   -4.2663    0.0000 C   0  0  0  0  0  0  0  0  0  0  0  0
   -3.0183   -1.7911    0.0000 C   0  0  0  0  0  0  0  0  0  0  0  0
   -4.4404    0.6717    0.0000 C   0  0  0  0  0  0  0  0  0  0  0  0
   -0.1161   -5.0623    0.0000 C   0  0  0  0  0  0  0  0  0  0  0  0
   -0.8707   -1.3848    0.0000 C   0  0  0  0  0  0  0  0  0  0  0  0
   -5.1536   -2.2098    0.0000 C   0  0  0  0  0  0  0  0  0  0  0  0
   -2.9561   -5.9621    0.0000 C   0  0  0  0  0  0  0  0  0  0  0  0
   -1.5838    0.6717    0.0000 C   0  0  0  0  0  0  0  0  0  0  0  0
   -0.0580    0.6592    0.0000 C   0  0  0  0  0  0  0  0  0  0  0  0
    1.3724    0.6095    0.0000 C   0  0  0  0  0  0  0  0  0  0  0  0
    1.9819   -2.3052    0.0000 C   0  0  0  0  0  0  0  0  0  0  0  0
   -0.0788   -6.7124    0.0000 C   0  0  0  0  0  0  0  0  0  0  0  0
   -5.1536   -3.0267    0.0000 C   0  0  0  0  0  0  0  0  0  0  0  0
   -0.8541   -3.8476    0.0000 H   0  0  0  0  0  0  0  0  0  0  0  0
   -0.1534   -2.6411    0.0000 H   0  0  0  0  0  0  0  0  0  0  0  0
   -2.3074    1.9072    0.0000 O   0  0  0  0  0  0  0  0  0  0  0  0
   -1.5965    1.4968    0.0000 C   0  0  0  0  0  0  0  0  0  0  0  0
   -0.8855    1.9072    0.0000 C   0  0  0  0  0  0  0  0  0  0  0  0
   -0.1759    1.4923    0.0000 C   0  0  0  0  0  0  0  0  0  0  0  0
    0.5345    1.9020    0.0000 C   0  0  0  0  0  0  0  0  0  0  0  0
    0.5349    2.7239    0.0000 C   0  0  0  0  0  0  0  0  0  0  0  0
   -0.1809    3.1341    0.0000 C   0  0  0  0  0  0  0  0  0  0  0  0
   -0.8885    2.7221    0.0000 C   0  0  0  0  0  0  0  0  0  0  0  0
  9 12  1  0
 10  3  1  0
 11  9  1  0
 12 25  1  0
 13  1  1  0
 14 18  1  0
 15  6  1  0
 16  7  1  0
 17 23  1  0
 18 17  1  0
 19  1  1  0
 20 17  1  0
 21 10  1  0
 22 24  1  0
  2 23  1  6
 24 20  1  0
 25 26  1  0
 26 16  1  0
 27 30  1  0
 15 28  1  1
 29  3  2  0
 30 19  1  0
 31 12  2  0
  4 32  1  1
  6 33  1  6
 16 34  1  1
 11 35  1  1
 14 36  1  1
 22 37  1  1
 38  4  1  0
  5 39  1  1
  8 40  1  6
  9 41  1  1
 42 14  1  0
 43 16  1  0
 21 44  1  6
 24 45  1  6
 25 46  1  6
 47 28  1  0
 48 28  1  0
 30 49  1  1
 50 36  1  0
 51 44  1  0
 17 52  1  6
  1 53  1  6
 27 15  1  0
  4 21  1  0
 22 14  1  0
 31 54  1  0
  2  8  1  0
 54 55  1  0
  3  5  1  0
 55 56  1  0
  4 11  1  0
 56 57  2  0
  5  2  1  0
 57 58  1  0
  6  1  1  0
 58 59  2  0
  7 13  1  6
 59 60  1  0
  8  7  1  0
 60 61  2  0
 61 56  1  0
M  END

> <chembl_id>
CHEMBL1774289

> <chembl_pref_name>
None


$$$$

     RDKit          2D

 45 48  0  0  1  0  0  0  0  0999 V2000
   -0.4958   -2.3917    0.0000 C   0  0  0  0  0  0  0  0  0  0  0  0
   -0.4875   -1.5667    0.0000 C   0  0  0  0  0  0  0  0  0  0  0  0
   -2.0333   -1.9792    0.0000 C   0  0  0  0  0  0  0  0  0  0  0  0
   -1.3208   -2.3917    0.0000 O   0  0  0  0  0  0  0  0  0  0  0  0
   -1.2875   -1.3500    0.0000 N   0  0  0  0  0  0  0  0  0  0  0  0
    0.2292   -1.1542    0.0000 C   0  0  0  0  0  0  0  0  0  0  0  0
    3.8417   -1.3542    0.0000 C   0  0  0  0  0  0  0  0  0  0  0  0
    3.8417   -0.5292    0.0000 C   0  0  0  0  0  0  0  0  0  0  0  0
    0.2292   -0.3292    0.0000 C   0  0  0  0  0  0  0  0  0  0  0  0
    0.2125   -3.6292    0.0000 O   0  0  0  0  0  0  0  0  0  0  0  0
    0.9250   -4.0417    0.0000 C   0  0  0  0  0  0  0  0  0  0  0  0
    4.5542   -0.1167    0.0000 C   0  0  0  0  0  0  0  0  0  0  0  0
    3.1292   -1.7750    0.0000 O   0  0  0  0  0  0  0  0  0  0  0  0
    1.6500   -1.1542    0.0000 C   0  0  0  0  0  0  0  0  0  0  0  0
    0.2167   -2.8042    0.0000 C   0  0  0  0  0  0  0  0  0  0  0  0
    2.3375   -1.5625    0.0000 C   0  0  0  0  0  0  0  0  0  0  0  0
    4.5542   -1.7667    0.0000 O   0  0  0  0  0  0  0  0  0  0  0  0
   -0.4875    0.0833    0.0000 N   0  0  0  0  0  0  0  0  0  0  0  0
    0.9375    0.0875    0.0000 C   0  0  0  0  0  0  0  0  0  0  0  0
    2.3417   -2.3875    0.0000 C   0  0  0  0  0  0  0  0  0  0  0  0
    1.6500   -0.3292    0.0000 C   0  0  0  0  0  0  0  0  0  0  0  0
    5.2667   -0.5292    0.0000 C   0  0  0  0  0  0  0  0  0  0  0  0
    1.6375   -3.6292    0.0000 C   0  0  0  0  0  0  0  0  0  0  0  0
    1.6292   -2.8042    0.0000 C   0  0  0  0  0  0  0  0  0  0  0  0
   -2.8583   -2.0500    0.0000 O   0  0  0  0  0  0  0  0  0  0  0  0
    4.5542    0.7083    0.0000 N   0  0  0  0  0  0  0  0  0  0  0  0
    5.2667   -1.3542    0.0000 C   0  0  0  0  0  0  0  0  0  0  0  0
    0.9250   -4.8667    0.0000 O   0  0  0  0  0  0  0  0  0  0  0  0
    3.1292   -0.1250    0.0000 O   0  0  0  0  0  0  0  0  0  0  0  0
   -0.9083   -3.1042    0.0000 C   0  0  0  0  0  0  0  0  0  0  0  0
   -1.7333   -0.6292    0.0000 C   0  0  0  0  0  0  0  0  0  0  0  0
    0.9292   -1.5542    0.0000 O   0  0  0  0  0  0  0  0  0  0  0  0
   -1.3125    0.0833    0.0000 C   0  0  0  0  0  0  0  0  0  0  0  0
   -0.5708   -0.9375    0.0000 C   0  0  0  0  0  0  0  0  0  0  0  0
    1.5893   -1.9810    0.0000 C   0  0  0  0  0  0  0  0  0  0  0  0
   -0.3708   -3.3917    0.0000 C   0  0  0  0  0  0  0  0  0  0  0  0
    0.9375    0.9125    0.0000 C   0  0  0  0  0  0  0  0  0  0  0  0
    3.0542   -2.7917    0.0000 C   0  0  0  0  0  0  0  0  0  0  0  0
    2.3542   -4.0375    0.0000 C   0  0  0  0  0  0  0  0  0  0  0  0
    5.2667    1.1208    0.0000 C   0  0  0  0  0  0  0  0  0  0  0  0
    3.8417    1.1208    0.0000 C   0  0  0  0  0  0  0  0  0  0  0  0
    5.9792   -1.7750    0.0000 C   0  0  0  0  0  0  0  0  0  0  0  0
    0.9167   -2.3917    0.0000 C   0  0  0  0  0  0  0  0  0  0  0  0
   -0.5875   -4.1875    0.0000 C   0  0  0  0  0  0  0  0  0  0  0  0
   -0.6160   -0.5750    0.0000 H   0  0  0  0  0  0  0  0  0  0  0  0
  2  1  1  0
  3  4  1  0
  1  4  1  0
  2  5  1  0
  6  2  1  0
  7 13  1  1
  8  7  1  0
  9  6  1  0
 10 15  1  0
 11 10  1  0
 12  8  1  0
 16 13  1  6
 14 21  1  0
 15  1  1  0
 16 20  1  0
 17  7  1  0
 18  9  2  0
 19  9  1  0
 20 24  1  0
 21 19  1  0
 22 27  1  0
 23 11  1  0
 24 23  1  0
 25  3  2  0
 12 26  1  1
 27 17  1  0
 28 11  2  0
  8 29  1  6
  1 30  1  6
 31  5  1  0
 14 32  1  0
 33 31  1  0
  6 34  1  6
 14 35  1  1
 15 36  1  1
 19 37  1  6
 20 38  1  1
 23 39  1  1
 40 26  1  0
 41 26  1  0
 27 42  1  1
 43 32  1  0
 44 36  1  0
  3  5  1  0
 33 18  1  0
 16 14  1  0
 12 22  1  0
  2 45  1  1
M  END

> <chembl_id>
CHEMBL346938

> <chembl_pref_name>
None


$$$$

     RDKit          2D

 40 41  0  0  1  0  0  0  0  0999 V2000
    7.5417   -3.0042    0.0000 C   0  0  0  0  0  0  0  0  0  0  0  0
    3.2042   -4.0375    0.0000 C   0  0  0  0  0  0  0  0  0  0  0  0
    7.5417   -2.1792    0.0000 C   0  0  0  0  0  0  0  0  0  0  0  0
    3.9250   -2.8000    0.0000 C   0  0  0  0  0  0  0  0  0  0  0  0
    3.2125   -3.2125    0.0000 C   0  0  0  0  0  0  0  0  0  0  0  0
    3.9250   -1.9750    0.0000 C   0  0  0  0  0  0  0  0  0  0  0  0
    3.9125   -5.2792    0.0000 O   0  0  0  0  0  0  0  0  0  0  0  0
    4.6250   -5.6917    0.0000 C   0  0  0  0  0  0  0  0  0  0  0  0
    8.2542   -1.7625    0.0000 C   0  0  0  0  0  0  0  0  0  0  0  0
    6.8292   -3.4250    0.0000 O   0  0  0  0  0  0  0  0  0  0  0  0
    5.3500   -2.8000    0.0000 C   0  0  0  0  0  0  0  0  0  0  0  0
    6.0375   -3.2125    0.0000 C   0  0  0  0  0  0  0  0  0  0  0  0
    8.2542   -3.4125    0.0000 O   0  0  0  0  0  0  0  0  0  0  0  0
    3.9125   -4.4542    0.0000 C   0  0  0  0  0  0  0  0  0  0  0  0
    4.6375   -1.5625    0.0000 C   0  0  0  0  0  0  0  0  0  0  0  0
    6.0375   -4.0375    0.0000 C   0  0  0  0  0  0  0  0  0  0  0  0
    5.3500   -1.9750    0.0000 C   0  0  0  0  0  0  0  0  0  0  0  0
    8.9667   -2.1792    0.0000 C   0  0  0  0  0  0  0  0  0  0  0  0
    5.3375   -5.2750    0.0000 C   0  0  0  0  0  0  0  0  0  0  0  0
    5.3292   -4.4417    0.0000 C   0  0  0  0  0  0  0  0  0  0  0  0
    8.2542   -0.9375    0.0000 N   0  0  0  0  0  0  0  0  0  0  0  0
    8.9667   -3.0042    0.0000 C   0  0  0  0  0  0  0  0  0  0  0  0
    4.6250   -6.5125    0.0000 O   0  0  0  0  0  0  0  0  0  0  0  0
    3.2125   -1.5625    0.0000 O   0  0  0  0  0  0  0  0  0  0  0  0
    2.3792   -4.0375    0.0000 O   0  0  0  0  0  0  0  0  0  0  0  0
    6.8250   -1.7750    0.0000 O   0  0  0  0  0  0  0  0  0  0  0  0
    2.4125   -3.0000    0.0000 O   0  0  0  0  0  0  0  0  0  0  0  0
    4.6292   -3.2042    0.0000 O   0  0  0  0  0  0  0  0  0  0  0  0
    2.7875   -4.7500    0.0000 C   0  0  0  0  0  0  0  0  0  0  0  0
    3.1250   -2.5875    0.0000 C   0  0  0  0  0  0  0  0  0  0  0  0
    5.3187   -3.6015    0.0000 C   0  0  0  0  0  0  0  0  0  0  0  0
    3.3250   -5.0375    0.0000 C   0  0  0  0  0  0  0  0  0  0  0  0
    4.6375   -0.7375    0.0000 C   0  0  0  0  0  0  0  0  0  0  0  0
    6.7542   -4.4417    0.0000 C   0  0  0  0  0  0  0  0  0  0  0  0
    6.0500   -5.6875    0.0000 C   0  0  0  0  0  0  0  0  0  0  0  0
    7.5375   -0.5250    0.0000 C   0  0  0  0  0  0  0  0  0  0  0  0
    8.9667   -0.5250    0.0000 C   0  0  0  0  0  0  0  0  0  0  0  0
    9.6792   -3.4250    0.0000 C   0  0  0  0  0  0  0  0  0  0  0  0
    4.6125   -4.0375    0.0000 C   0  0  0  0  0  0  0  0  0  0  0  0
    3.1125   -5.8375    0.0000 C   0  0  0  0  0  0  0  0  0  0  0  0
  2 14  1  0
  3  1  1  0
  4  6  1  0
  5  4  1  0
  6 15  1  0
  7  8  1  0
  8 19  1  0
  9  3  1  0
  1 10  1  1
 11 12  1  0
 12 10  1  6
 13  1  1  0
 14  7  1  0
 15 17  1  0
 16 12  1  0
 17 11  1  0
 18 22  1  0
 19 20  1  0
 20 16  1  0
  9 21  1  1
 22 13  1  0
 23  8  2  0
 24  6  2  0
  2 25  1  1
  3 26  1  6
  5 27  1  6
 11 28  1  0
  2 29  1  0
  4 30  1  6
 11 31  1  1
 14 32  1  1
 15 33  1  6
 16 34  1  1
 19 35  1  1
 36 21  1  0
 37 21  1  0
 22 38  1  1
 39 28  1  0
 40 32  1  0
  9 18  1  0
  5  2  1  0
M  END

> <chembl_id>
CHEMBL446688

> <chembl_pref_name>
None


$$$$

     RDKit          2D

 63 66  0  0  1  0  0  0  0  0999 V2000
    6.1917   -1.6250    0.0000 C   0  0  0  0  0  0  0  0  0  0  0  0
    3.4000   -3.1625    0.0000 C   0  0  0  0  0  0  0  0  0  0  0  0
    2.7042   -4.3500    0.0000 C   0  0  0  0  0  0  0  0  0  0  0  0
    1.3292   -2.7625    0.0000 C   0  0  0  0  0  0  0  0  0  0  0  0
    3.4000   -3.9417    0.0000 C   0  0  0  0  0  0  0  0  0  0  0  0
    6.1917   -0.8292    0.0000 C   0  0  0  0  0  0  0  0  0  0  0  0
    4.0917   -1.9542    0.0000 C   0  0  0  0  0  0  0  0  0  0  0  0
    4.0917   -2.7667    0.0000 C   0  0  0  0  0  0  0  0  0  0  0  0
    2.0167   -1.5667    0.0000 C   0  0  0  0  0  0  0  0  0  0  0  0
    2.0167   -3.9417    0.0000 O   0  0  0  0  0  0  0  0  0  0  0  0
    1.3292   -1.9625    0.0000 C   0  0  0  0  0  0  0  0  0  0  0  0
    2.0167   -0.7667    0.0000 C   0  0  0  0  0  0  0  0  0  0  0  0
    5.1542   -2.1000    0.0000 O   0  0  0  0  0  0  0  0  0  0  0  0
    6.1000   -4.5917    0.0000 C   0  0  0  0  0  0  0  0  0  0  0  0
    6.8667   -0.4167    0.0000 C   0  0  0  0  0  0  0  0  0  0  0  0
    3.4000   -1.5667    0.0000 C   0  0  0  0  0  0  0  0  0  0  0  0
    5.4125   -3.3917    0.0000 C   0  0  0  0  0  0  0  0  0  0  0  0
    5.4125   -4.1917    0.0000 C   0  0  0  0  0  0  0  0  0  0  0  0
    6.8667   -2.0250    0.0000 O   0  0  0  0  0  0  0  0  0  0  0  0
    6.1000   -2.9917    0.0000 O   0  0  0  0  0  0  0  0  0  0  0  0
    2.0167   -3.1542    0.0000 C   0  0  0  0  0  0  0  0  0  0  0  0
    6.7917   -4.1917    0.0000 C   0  0  0  0  0  0  0  0  0  0  0  0
    4.5042   -3.6667    0.0000 O   0  0  0  0  0  0  0  0  0  0  0  0
    6.7917   -3.3917    0.0000 C   0  0  0  0  0  0  0  0  0  0  0  0
    2.7042   -0.3625    0.0000 C   0  0  0  0  0  0  0  0  0  0  0  0
    3.4000   -0.7667    0.0000 C   0  0  0  0  0  0  0  0  0  0  0  0
    7.5542   -0.8292    0.0000 C   0  0  0  0  0  0  0  0  0  0  0  0
    6.8667    0.3833    0.0000 N   0  0  0  0  0  0  0  0  0  0  0  0
    2.7042   -5.1500    0.0000 O   0  0  0  0  0  0  0  0  0  0  0  0
    7.5542   -1.6250    0.0000 C   0  0  0  0  0  0  0  0  0  0  0  0
    1.3167   -0.3667    0.0000 O   0  0  0  0  0  0  0  0  0  0  0  0
    0.6375   -3.1542    0.0000 O   0  0  0  0  0  0  0  0  0  0  0  0
    5.3500   -0.6792    0.0000 O   0  0  0  0  0  0  0  0  0  0  0  0
    0.6375   -1.5625    0.0000 O   0  0  0  0  0  0  0  0  0  0  0  0
    6.7917   -5.0000    0.0000 O   0  0  0  0  0  0  0  0  0  0  0  0
    4.1917   -0.9417    0.0000 O   0  0  0  0  0  0  0  0  0  0  0  0
    7.4792   -4.6000    0.0000 O   0  0  0  0  0  0  0  0  0  0  0  0
    1.1250   -3.5292    0.0000 C   0  0  0  0  0  0  0  0  0  0  0  0
    4.0917   -4.3500    0.0000 C   0  0  0  0  0  0  0  0  0  0  0  0
    4.7792   -3.1625    0.0000 C   0  0  0  0  0  0  0  0  0  0  0  0
    5.0042    1.0958    0.0000 N   0  0  0  0  0  0  0  0  0  0  0  0
    1.2417   -1.3542    0.0000 C   0  0  0  0  0  0  0  0  0  0  0  0
    5.4125   -4.9917    0.0000 C   0  0  0  0  0  0  0  0  0  0  0  0
    4.2042   -1.5667    0.0000 C   0  0  0  0  0  0  0  0  0  0  0  0
    1.4542   -3.7167    0.0000 C   0  0  0  0  0  0  0  0  0  0  0  0
    6.4542    3.5333    0.0000 C   0  0  0  0  0  0  0  0  0  0  0  0
    7.4792   -3.0000    0.0000 C   0  0  0  0  0  0  0  0  0  0  0  0
    2.7042    0.4375    0.0000 C   0  0  0  0  0  0  0  0  0  0  0  0
    6.0500    0.6250    0.0000 C   0  0  0  0  0  0  0  0  0  0  0  0
    7.5667    0.7833    0.0000 C   0  0  0  0  0  0  0  0  0  0  0  0
    8.2625   -2.0250    0.0000 C   0  0  0  0  0  0  0  0  0  0  0  0
    4.9667    0.2625    0.0000 C   0  0  0  0  0  0  0  0  0  0  0  0
    5.7500    1.4583    0.0000 C   0  0  0  0  0  0  0  0  0  0  0  0
    4.2292   -0.1167    0.0000 C   0  0  0  0  0  0  0  0  0  0  0  0
    6.4667    2.7125    0.0000 C   0  0  0  0  0  0  0  0  0  0  0  0
    6.7917   -5.7917    0.0000 C   0  0  0  0  0  0  0  0  0  0  0  0
    7.1667    3.9458    0.0000 C   0  0  0  0  0  0  0  0  0  0  0  0
    5.7375    3.9333    0.0000 C   0  0  0  0  0  0  0  0  0  0  0  0
    5.7500    2.2875    0.0000 C   0  0  0  0  0  0  0  0  0  0  0  0
    1.4542   -4.5250    0.0000 C   0  0  0  0  0  0  0  0  0  0  0  0
    5.7375    4.7542    0.0000 C   0  0  0  0  0  0  0  0  0  0  0  0
    7.1667    4.7667    0.0000 C   0  0  0  0  0  0  0  0  0  0  0  0
    6.4417    5.1792    0.0000 C   0  0  0  0  0  0  0  0  0  0  0  0
  2  8  1  0
  3  5  1  0
  4 11  1  0
  5  2  1  0
  6  1  1  0
  7 13  1  6
  8  7  1  0
  9 12  1  0
 10  3  1  0
 11  9  1  0
 12 25  1  0
  1 13  1  1
 14 18  1  0
 15  6  1  0
 16  7  1  0
 17 23  1  6
 18 17  1  0
 19  1  1  0
 20 17  1  0
 21 10  1  0
 22 24  1  0
  2 23  1  1
 24 20  1  0
 25 26  1  0
 26 16  1  0
 27 30  1  0
 15 28  1  1
 29  3  2  0
 30 19  1  0
 31 12  2  0
  4 32  1  1
  6 33  1  6
 11 34  1  6
 14 35  1  6
 16 36  1  6
 22 37  1  6
  4 38  1  6
  5 39  1  1
  8 40  1  1
 41 52  1  0
  9 42  1  6
 14 43  1  1
 16 44  1  1
 21 45  1  1
 46 55  1  0
 24 47  1  1
 25 48  1  6
 49 28  1  0
 50 28  1  0
 30 51  1  1
 52 54  1  0
 53 41  1  0
 54 36  1  0
 55 59  1  0
 56 35  1  0
 57 46  2  0
 58 46  1  0
 59 53  1  0
 60 45  1  0
 61 58  2  0
 62 57  1  0
 63 61  1  0
 27 15  1  0
 21  4  1  0
 14 22  1  0
 62 63  2  0
M  END

> <chembl_id>
CHEMBL354891

> <chembl_pref_name>
None


$$$$

     RDKit          2D

 63 66  0  0  1  0  0  0  0  0999 V2000
    7.8417   -1.9625    0.0000 C   0  0  0  0  0  0  0  0  0  0  0  0
    5.0250   -3.5167    0.0000 C   0  0  0  0  0  0  0  0  0  0  0  0
    4.3250   -4.7167    0.0000 C   0  0  0  0  0  0  0  0  0  0  0  0
    2.9292   -3.1125    0.0000 C   0  0  0  0  0  0  0  0  0  0  0  0
    5.0250   -4.3042    0.0000 C   0  0  0  0  0  0  0  0  0  0  0  0
    7.8417   -1.1542    0.0000 C   0  0  0  0  0  0  0  0  0  0  0  0
    5.7167   -2.3000    0.0000 C   0  0  0  0  0  0  0  0  0  0  0  0
    5.7167   -3.1167    0.0000 C   0  0  0  0  0  0  0  0  0  0  0  0
    3.6292   -1.9042    0.0000 C   0  0  0  0  0  0  0  0  0  0  0  0
    3.6292   -4.3042    0.0000 O   0  0  0  0  0  0  0  0  0  0  0  0
    2.9292   -2.3042    0.0000 C   0  0  0  0  0  0  0  0  0  0  0  0
    5.0250   -1.9042    0.0000 C   0  0  0  0  0  0  0  0  0  0  0  0
    3.6292   -1.0917    0.0000 C   0  0  0  0  0  0  0  0  0  0  0  0
    6.8000   -2.4417    0.0000 O   0  0  0  0  0  0  0  0  0  0  0  0
    7.7542   -4.9625    0.0000 C   0  0  0  0  0  0  0  0  0  0  0  0
    8.5250   -0.7417    0.0000 C   0  0  0  0  0  0  0  0  0  0  0  0
    7.0542   -3.7500    0.0000 C   0  0  0  0  0  0  0  0  0  0  0  0
    7.0542   -4.5625    0.0000 C   0  0  0  0  0  0  0  0  0  0  0  0
    8.5250   -2.3667    0.0000 O   0  0  0  0  0  0  0  0  0  0  0  0
    7.7542   -3.3417    0.0000 O   0  0  0  0  0  0  0  0  0  0  0  0
    3.6292   -3.5042    0.0000 C   0  0  0  0  0  0  0  0  0  0  0  0
    8.4500   -4.5625    0.0000 C   0  0  0  0  0  0  0  0  0  0  0  0
    6.1417   -4.0292    0.0000 O   0  0  0  0  0  0  0  0  0  0  0  0
    8.4500   -3.7500    0.0000 C   0  0  0  0  0  0  0  0  0  0  0  0
    4.3250   -0.6875    0.0000 C   0  0  0  0  0  0  0  0  0  0  0  0
    5.0250   -1.0917    0.0000 C   0  0  0  0  0  0  0  0  0  0  0  0
    9.2250   -1.1542    0.0000 C   0  0  0  0  0  0  0  0  0  0  0  0
    5.8250   -1.2750    0.0000 O   0  0  0  0  0  0  0  0  0  0  0  0
    8.5250    0.0625    0.0000 N   0  0  0  0  0  0  0  0  0  0  0  0
    4.3250   -5.5250    0.0000 O   0  0  0  0  0  0  0  0  0  0  0  0
    9.2250   -1.9625    0.0000 C   0  0  0  0  0  0  0  0  0  0  0  0
    2.9167   -0.6917    0.0000 O   0  0  0  0  0  0  0  0  0  0  0  0
    2.2292   -3.5042    0.0000 O   0  0  0  0  0  0  0  0  0  0  0  0
    6.9917   -1.0042    0.0000 O   0  0  0  0  0  0  0  0  0  0  0  0
    7.3917    1.1583    0.0000 N   0  0  0  0  0  0  0  0  0  0  0  0
    2.2292   -1.8917    0.0000 O   0  0  0  0  0  0  0  0  0  0  0  0
    8.4500   -5.3667    0.0000 O   0  0  0  0  0  0  0  0  0  0  0  0
    9.1500   -4.9667    0.0000 O   0  0  0  0  0  0  0  0  0  0  0  0
    5.8625   -0.4375    0.0000 C   0  0  0  0  0  0  0  0  0  0  0  0
    6.6042   -0.0542    0.0000 C   0  0  0  0  0  0  0  0  0  0  0  0
    2.7250   -3.8917    0.0000 C   0  0  0  0  0  0  0  0  0  0  0  0
    5.7167   -4.7167    0.0000 C   0  0  0  0  0  0  0  0  0  0  0  0
    6.4167   -3.5167    0.0000 C   0  0  0  0  0  0  0  0  0  0  0  0
    2.8417   -1.6917    0.0000 C   0  0  0  0  0  0  0  0  0  0  0  0
    5.8375   -1.9042    0.0000 C   0  0  0  0  0  0  0  0  0  0  0  0
    7.0542   -5.3625    0.0000 C   0  0  0  0  0  0  0  0  0  0  0  0
    7.1542   -0.3625    0.0000 O   0  0  0  0  0  0  0  0  0  0  0  0
    8.1167    2.4208    0.0000 C   0  0  0  0  0  0  0  0  0  0  0  0
    3.0542   -4.0792    0.0000 C   0  0  0  0  0  0  0  0  0  0  0  0
    6.6500    0.7833    0.0000 C   0  0  0  0  0  0  0  0  0  0  0  0
    9.1500   -3.3542    0.0000 C   0  0  0  0  0  0  0  0  0  0  0  0
    4.3250    0.1208    0.0000 C   0  0  0  0  0  0  0  0  0  0  0  0
    7.3917    1.9958    0.0000 C   0  0  0  0  0  0  0  0  0  0  0  0
    7.7000    0.3125    0.0000 C   0  0  0  0  0  0  0  0  0  0  0  0
    9.2375    0.4708    0.0000 C   0  0  0  0  0  0  0  0  0  0  0  0
    9.9292   -2.3667    0.0000 C   0  0  0  0  0  0  0  0  0  0  0  0
    8.4500   -6.1750    0.0000 C   0  0  0  0  0  0  0  0  0  0  0  0
    8.1042    3.2458    0.0000 C   0  0  0  0  0  0  0  0  0  0  0  0
    8.8375    2.0208    0.0000 C   0  0  0  0  0  0  0  0  0  0  0  0
    3.0542   -4.8917    0.0000 C   0  0  0  0  0  0  0  0  0  0  0  0
    9.5417    2.4458    0.0000 C   0  0  0  0  0  0  0  0  0  0  0  0
    8.8042    3.6708    0.0000 C   0  0  0  0  0  0  0  0  0  0  0  0
    9.5292    3.2750    0.0000 C   0  0  0  0  0  0  0  0  0  0  0  0
  2  8  1  0
  3  5  1  0
  4 11  1  0
  5  2  1  0
  6  1  1  0
  7 14  1  6
  8  7  1  0
  9 13  1  0
 10  3  1  0
 11  9  1  0
 12  7  1  0
 13 25  1  0
  1 14  1  1
 15 18  1  0
 16  6  1  0
 17 23  1  6
 18 17  1  0
 19  1  1  0
 20 17  1  0
 21 10  1  0
 22 24  1  0
  2 23  1  1
 24 20  1  0
 25 26  1  0
 26 12  1  0
 27 31  1  0
 12 28  1  6
 16 29  1  1
 30  3  2  0
 31 19  1  0
 32 13  2  0
  4 33  1  1
  6 34  1  6
 35 50  1  0
 11 36  1  6
 15 37  1  6
 22 38  1  6
 39 28  1  0
 40 39  1  0
  4 41  1  6
  5 42  1  1
  8 43  1  1
  9 44  1  6
 12 45  1  1
 15 46  1  1
 40 47  1  0
 48 53  1  0
 21 49  1  1
 50 40  1  0
 24 51  1  1
 25 52  1  6
 53 35  1  0
 54 29  1  0
 55 29  1  0
 31 56  1  1
 57 37  1  0
 58 48  2  0
 59 48  1  0
 60 49  1  0
 61 59  2  0
 62 58  1  0
 63 61  1  0
 27 16  1  0
 21  4  1  0
 15 22  1  0
 62 63  2  0
M  END

> <chembl_id>
CHEMBL353966

> <chembl_pref_name>
None


$$$$

     RDKit          2D

 57 59  0  0  0  0  0  0  0  0999 V2000
    0.2943  -24.4381    0.0000 C   0  0  0  0  0  0  0  0  0  0  0  0
   -1.8531  -25.6486    0.0000 C   0  0  0  0  0  0  0  0  0  0  0  0
   -3.2915  -25.6486    0.0000 C   0  0  0  0  0  0  0  0  0  0  0  0
   -4.0004  -23.5966    0.0000 C   0  0  0  0  0  0  0  0  0  0  0  0
   -2.5702  -26.0631    0.0000 C   0  0  0  0  0  0  0  0  0  0  0  0
    0.3234  -23.6131    0.0000 C   0  0  0  0  0  0  0  0  0  0  0  0
   -1.1442  -24.4215    0.0000 C   0  0  0  0  0  0  0  0  0  0  0  0
   -1.8655  -24.8236    0.0000 C   0  0  0  0  0  0  0  0  0  0  0  0
   -3.2915  -22.3570    0.0000 C   0  0  0  0  0  0  0  0  0  0  0  0
   -3.2915  -24.8236    0.0000 O   0  0  0  0  0  0  0  0  0  0  0  0
   -3.2915  -23.1820    0.0000 C   0  0  0  0  0  0  0  0  0  0  0  0
   -2.5786  -21.9508    0.0000 C   0  0  0  0  0  0  0  0  0  0  0  0
   -0.4311  -24.8236    0.0000 O   0  0  0  0  0  0  0  0  0  0  0  0
   -0.3773  -28.1111    0.0000 C   0  0  0  0  0  0  0  0  0  0  0  0
    1.0489  -23.2235    0.0000 C   0  0  0  0  0  0  0  0  0  0  0  0
   -1.1442  -23.5966    0.0000 C   0  0  0  0  0  0  0  0  0  0  0  0
   -1.1276  -26.8881    0.0000 C   0  0  0  0  0  0  0  0  0  0  0  0
   -0.4022  -27.2861    0.0000 C   0  0  0  0  0  0  0  0  0  0  0  0
    0.9991  -24.8816    0.0000 O   0  0  0  0  0  0  0  0  0  0  0  0
   -1.8406  -27.3192    0.0000 O   0  0  0  0  0  0  0  0  0  0  0  0
   -4.0004  -24.4215    0.0000 C   0  0  0  0  0  0  0  0  0  0  0  0
   -1.0820  -28.5380    0.0000 C   0  0  0  0  0  0  0  0  0  0  0  0
   -1.1524  -26.0631    0.0000 O   0  0  0  0  0  0  0  0  0  0  0  0
   -1.8075  -28.1442    0.0000 C   0  0  0  0  0  0  0  0  0  0  0  0
   -1.8655  -22.3570    0.0000 C   0  0  0  0  0  0  0  0  0  0  0  0
   -1.8655  -23.1820    0.0000 C   0  0  0  0  0  0  0  0  0  0  0  0
    1.7494  -23.6628    0.0000 C   0  0  0  0  0  0  0  0  0  0  0  0
    1.0820  -22.3985    0.0000 N   0  0  0  0  0  0  0  0  0  0  0  0
   -3.9922  -26.0631    0.0000 O   0  0  0  0  0  0  0  0  0  0  0  0
    1.7245  -24.4878    0.0000 C   0  0  0  0  0  0  0  0  0  0  0  0
   -2.5786  -21.1258    0.0000 N   0  0  0  0  0  0  0  0  0  0  0  0
   -4.5145  -22.9499    0.0000 O   0  0  0  0  0  0  0  0  0  0  0  0
   -0.3773  -23.1737    0.0000 O   0  0  0  0  0  0  0  0  0  0  0  0
   -0.9286  -22.9126    0.0000 O   0  0  0  0  0  0  0  0  0  0  0  0
   -2.5786  -23.5966    0.0000 O   0  0  0  0  0  0  0  0  0  0  0  0
   -0.3648  -28.9360    0.0000 O   0  0  0  0  0  0  0  0  0  0  0  0
   -1.0654  -29.3630    0.0000 O   0  0  0  0  0  0  0  0  0  0  0  0
   -4.7259  -23.9986    0.0000 C   0  0  0  0  0  0  0  0  0  0  0  0
   -2.5661  -26.8881    0.0000 C   0  0  0  0  0  0  0  0  0  0  0  0
   -2.5786  -24.4132    0.0000 C   0  0  0  0  0  0  0  0  0  0  0  0
   -4.0004  -21.9508    0.0000 C   0  0  0  0  0  0  0  0  0  0  0  0
    0.3234  -27.6841    0.0000 C   0  0  0  0  0  0  0  0  0  0  0  0
   -0.4311  -24.0070    0.0000 C   0  0  0  0  0  0  0  0  0  0  0  0
   -4.7135  -24.8319    0.0000 C   0  0  0  0  0  0  0  0  0  0  0  0
   -2.5164  -28.5837    0.0000 C   0  0  0  0  0  0  0  0  0  0  0  0
   -1.1442  -21.9508    0.0000 C   0  0  0  0  0  0  0  0  0  0  0  0
    0.3814  -21.9632    0.0000 C   0  0  0  0  0  0  0  0  0  0  0  0
    1.8116  -22.0129    0.0000 C   0  0  0  0  0  0  0  0  0  0  0  0
    2.4210  -24.9273    0.0000 C   0  0  0  0  0  0  0  0  0  0  0  0
    0.3607  -29.3340    0.0000 C   0  0  0  0  0  0  0  0  0  0  0  0
   -4.7135  -25.6486    0.0000 C   0  0  0  0  0  0  0  0  0  0  0  0
   -0.4146  -26.4694    0.0000 H   0  0  0  0  0  0  0  0  0  0  0  0
    0.2860  -25.2631    0.0000 H   0  0  0  0  0  0  0  0  0  0  0  0
   -1.8677  -20.7153    0.0000 O   0  0  0  0  0  0  0  0  0  0  0  0
   -1.8677  -19.8945    0.0000 C   0  0  0  0  0  0  0  0  0  0  0  0
   -1.1568  -19.4841    0.0000 C   0  0  0  0  0  0  0  0  0  0  0  0
   -0.4460  -19.8945    0.0000 C   0  0  0  0  0  0  0  0  0  0  0  0
  5  2  1  0
  6  1  1  0
  7 13  1  6
  8  7  1  0
  9 12  1  0
 10  3  1  0
 11  9  1  0
 12 25  1  0
 13  1  1  0
 14 18  1  0
 15  6  1  0
 16  7  1  0
 17 23  1  0
 18 17  1  0
 19  1  1  0
 20 17  1  0
 21 10  1  0
 22 24  1  0
  2 23  1  6
 24 20  1  0
 25 26  1  0
 26 16  1  0
 27 30  1  0
 15 28  1  1
 29  3  2  0
 30 19  1  0
 31 12  2  0
  4 32  1  1
  6 33  1  6
 16 34  1  1
 11 35  1  1
 14 36  1  1
 22 37  1  1
 38  4  1  0
  5 39  1  1
  8 40  1  6
  9 41  1  1
 42 14  1  0
 43 16  1  0
 21 44  1  6
 24 45  1  6
 25 46  1  6
 47 28  1  0
 48 28  1  0
 30 49  1  1
 50 36  1  0
 51 44  1  0
 17 52  1  6
  1 53  1  6
 27 15  1  0
  4 21  1  0
 22 14  1  0
 31 54  1  0
  2  8  1  0
 54 55  1  0
  3  5  1  0
 55 56  1  0
  4 11  1  0
 56 57  1  0
M  END

> <chembl_id>
CHEMBL1774287

> <chembl_pref_name>
None


$$$$

     RDKit          2D

 57 59  0  0  0  0  0  0  0  0999 V2000
   11.3464  -24.3137    0.0000 C   0  0  0  0  0  0  0  0  0  0  0  0
    9.1990  -25.5243    0.0000 C   0  0  0  0  0  0  0  0  0  0  0  0
    7.7605  -25.5243    0.0000 C   0  0  0  0  0  0  0  0  0  0  0  0
    7.0516  -23.4722    0.0000 C   0  0  0  0  0  0  0  0  0  0  0  0
    8.4818  -25.9387    0.0000 C   0  0  0  0  0  0  0  0  0  0  0  0
   11.3754  -23.4887    0.0000 C   0  0  0  0  0  0  0  0  0  0  0  0
    9.9079  -24.2971    0.0000 C   0  0  0  0  0  0  0  0  0  0  0  0
    9.1865  -24.6993    0.0000 C   0  0  0  0  0  0  0  0  0  0  0  0
    7.7605  -22.2326    0.0000 C   0  0  0  0  0  0  0  0  0  0  0  0
    7.7605  -24.6993    0.0000 O   0  0  0  0  0  0  0  0  0  0  0  0
    7.7605  -23.0576    0.0000 C   0  0  0  0  0  0  0  0  0  0  0  0
    8.4736  -21.8264    0.0000 C   0  0  0  0  0  0  0  0  0  0  0  0
   10.6209  -24.6993    0.0000 O   0  0  0  0  0  0  0  0  0  0  0  0
   10.6749  -27.9867    0.0000 C   0  0  0  0  0  0  0  0  0  0  0  0
   12.1009  -23.0991    0.0000 C   0  0  0  0  0  0  0  0  0  0  0  0
    9.9079  -23.4722    0.0000 C   0  0  0  0  0  0  0  0  0  0  0  0
    9.9245  -26.7637    0.0000 C   0  0  0  0  0  0  0  0  0  0  0  0
   10.6500  -27.1617    0.0000 C   0  0  0  0  0  0  0  0  0  0  0  0
   12.0511  -24.7573    0.0000 O   0  0  0  0  0  0  0  0  0  0  0  0
    9.2114  -27.1949    0.0000 O   0  0  0  0  0  0  0  0  0  0  0  0
    7.0516  -24.2971    0.0000 C   0  0  0  0  0  0  0  0  0  0  0  0
    9.9700  -28.4136    0.0000 C   0  0  0  0  0  0  0  0  0  0  0  0
    9.8996  -25.9387    0.0000 O   0  0  0  0  0  0  0  0  0  0  0  0
    9.2446  -28.0199    0.0000 C   0  0  0  0  0  0  0  0  0  0  0  0
    9.1865  -22.2326    0.0000 C   0  0  0  0  0  0  0  0  0  0  0  0
    9.1865  -23.0576    0.0000 C   0  0  0  0  0  0  0  0  0  0  0  0
   12.8015  -23.5385    0.0000 C   0  0  0  0  0  0  0  0  0  0  0  0
   12.1340  -22.2741    0.0000 N   0  0  0  0  0  0  0  0  0  0  0  0
    7.0599  -25.9387    0.0000 O   0  0  0  0  0  0  0  0  0  0  0  0
   12.7767  -24.3635    0.0000 C   0  0  0  0  0  0  0  0  0  0  0  0
    8.4736  -21.0014    0.0000 N   0  0  0  0  0  0  0  0  0  0  0  0
    6.5375  -22.8255    0.0000 O   0  0  0  0  0  0  0  0  0  0  0  0
   10.6749  -23.0494    0.0000 O   0  0  0  0  0  0  0  0  0  0  0  0
   10.1235  -22.7882    0.0000 O   0  0  0  0  0  0  0  0  0  0  0  0
    8.4736  -23.4722    0.0000 O   0  0  0  0  0  0  0  0  0  0  0  0
   10.6873  -28.8116    0.0000 O   0  0  0  0  0  0  0  0  0  0  0  0
    9.9867  -29.2386    0.0000 O   0  0  0  0  0  0  0  0  0  0  0  0
    6.3261  -23.8743    0.0000 C   0  0  0  0  0  0  0  0  0  0  0  0
    8.4860  -26.7637    0.0000 C   0  0  0  0  0  0  0  0  0  0  0  0
    8.4736  -24.2888    0.0000 C   0  0  0  0  0  0  0  0  0  0  0  0
    7.0516  -21.8264    0.0000 C   0  0  0  0  0  0  0  0  0  0  0  0
   11.3754  -27.5597    0.0000 C   0  0  0  0  0  0  0  0  0  0  0  0
   10.6209  -23.8826    0.0000 C   0  0  0  0  0  0  0  0  0  0  0  0
    6.3385  -24.7075    0.0000 C   0  0  0  0  0  0  0  0  0  0  0  0
    8.5357  -28.4593    0.0000 C   0  0  0  0  0  0  0  0  0  0  0  0
    9.9079  -21.8264    0.0000 C   0  0  0  0  0  0  0  0  0  0  0  0
   11.4335  -21.8388    0.0000 C   0  0  0  0  0  0  0  0  0  0  0  0
   12.8637  -21.8886    0.0000 C   0  0  0  0  0  0  0  0  0  0  0  0
   13.4731  -24.8029    0.0000 C   0  0  0  0  0  0  0  0  0  0  0  0
   11.4127  -29.2096    0.0000 C   0  0  0  0  0  0  0  0  0  0  0  0
    6.3385  -25.5243    0.0000 C   0  0  0  0  0  0  0  0  0  0  0  0
   10.6375  -26.3451    0.0000 H   0  0  0  0  0  0  0  0  0  0  0  0
   11.3381  -25.1387    0.0000 H   0  0  0  0  0  0  0  0  0  0  0  0
    9.1843  -20.5910    0.0000 O   0  0  0  0  0  0  0  0  0  0  0  0
    9.1843  -19.7702    0.0000 C   0  0  0  0  0  0  0  0  0  0  0  0
    9.8952  -19.3597    0.0000 C   0  0  0  0  0  0  0  0  0  0  0  0
   10.6061  -19.7702    0.0000 C   0  0  0  0  0  0  0  0  0  0  0  0
  5  2  1  0
  6  1  1  0
  7 13  1  6
  8  7  1  0
  9 12  1  0
 10  3  1  0
 11  9  1  0
 12 25  1  0
 13  1  1  0
 14 18  1  0
 15  6  1  0
 16  7  1  0
 17 23  1  0
 18 17  1  0
 19  1  1  0
 20 17  1  0
 21 10  1  0
 22 24  1  0
  2 23  1  6
 24 20  1  0
 25 26  1  0
 26 16  1  0
 27 30  1  0
 15 28  1  1
 29  3  2  0
 30 19  1  0
 31 12  2  0
  4 32  1  1
  6 33  1  6
 16 34  1  1
 11 35  1  1
 14 36  1  1
 22 37  1  1
 38  4  1  0
  5 39  1  1
  8 40  1  6
  9 41  1  1
 42 14  1  0
 43 16  1  0
 21 44  1  6
 24 45  1  6
 25 46  1  6
 47 28  1  0
 48 28  1  0
 30 49  1  1
 50 36  1  0
 51 44  1  0
 17 52  1  6
  1 53  1  6
 27 15  1  0
  4 21  1  0
 22 14  1  0
 31 54  1  0
  2  8  1  0
 54 55  1  0
  3  5  1  0
 55 56  1  0
  4 11  1  0
 56 57  2  0
M  END

> <chembl_id>
CHEMBL1774288

> <chembl_pref_name>
None


$$$$

     RDKit          2D

 52 54  0  0  1  0  0  0  0  0999 V2000
    2.6246   -1.6229    0.0000 C   0  0  0  0  0  0  0  0  0  0  0  0
    0.4892   -3.6845    0.0000 C   0  0  0  0  0  0  0  0  0  0  0  0
   -0.2290   -4.9191    0.0000 C   0  0  0  0  0  0  0  0  0  0  0  0
    0.4892   -4.5115    0.0000 C   0  0  0  0  0  0  0  0  0  0  0  0
    2.6129   -0.7959    0.0000 C   0  0  0  0  0  0  0  0  0  0  0  0
   -1.6500   -3.2769    0.0000 C   0  0  0  0  0  0  0  0  0  0  0  0
    1.1997   -2.4499    0.0000 C   0  0  0  0  0  0  0  0  0  0  0  0
    1.1997   -3.2769    0.0000 C   0  0  0  0  0  0  0  0  0  0  0  0
   -0.9395   -4.5115    0.0000 O   0  0  0  0  0  0  0  0  0  0  0  0
    0.4892   -2.0422    0.0000 C   0  0  0  0  0  0  0  0  0  0  0  0
    1.9141   -2.0422    0.0000 O   0  0  0  0  0  0  0  0  0  0  0  0
    2.6129   -5.7345    0.0000 C   0  0  0  0  0  0  0  0  0  0  0  0
    3.3234   -0.3766    0.0000 C   0  0  0  0  0  0  0  0  0  0  0  0
   -0.5319   -0.5048    0.0000 N   0  0  0  0  0  0  0  0  0  0  0  0
    1.9102   -4.5076    0.0000 C   0  0  0  0  0  0  0  0  0  0  0  0
   -1.6500   -2.4499    0.0000 C   0  0  0  0  0  0  0  0  0  0  0  0
    1.9025   -5.3268    0.0000 C   0  0  0  0  0  0  0  0  0  0  0  0
    3.3351   -2.0267    0.0000 O   0  0  0  0  0  0  0  0  0  0  0  0
    2.6129   -4.0922    0.0000 O   0  0  0  0  0  0  0  0  0  0  0  0
   -0.9395   -3.6845    0.0000 C   0  0  0  0  0  0  0  0  0  0  0  0
    3.3234   -5.3345    0.0000 C   0  0  0  0  0  0  0  0  0  0  0  0
   -0.9395   -2.0422    0.0000 C   0  0  0  0  0  0  0  0  0  0  0  0
    0.4892   -1.2153    0.0000 C   0  0  0  0  0  0  0  0  0  0  0  0
    1.1997   -4.0922    0.0000 O   0  0  0  0  0  0  0  0  0  0  0  0
    3.3234   -4.5115    0.0000 C   0  0  0  0  0  0  0  0  0  0  0  0
   -0.9395   -1.2153    0.0000 C   0  0  0  0  0  0  0  0  0  0  0  0
    0.0738   -0.5008    0.0000 C   0  0  0  0  0  0  0  0  0  0  0  0
    4.0417   -0.7843    0.0000 C   0  0  0  0  0  0  0  0  0  0  0  0
    3.3195    0.4426    0.0000 N   0  0  0  0  0  0  0  0  0  0  0  0
   -0.2290   -5.7461    0.0000 O   0  0  0  0  0  0  0  0  0  0  0  0
    4.0456   -1.6113    0.0000 C   0  0  0  0  0  0  0  0  0  0  0  0
   -2.3644   -2.8575    0.0000 O   0  0  0  0  0  0  0  0  0  0  0  0
    1.8908   -0.3883    0.0000 O   0  0  0  0  0  0  0  0  0  0  0  0
   -0.2290   -2.4460    0.0000 O   0  0  0  0  0  0  0  0  0  0  0  0
    3.0206   -6.4450    0.0000 O   0  0  0  0  0  0  0  0  0  0  0  0
    4.0339   -5.7461    0.0000 O   0  0  0  0  0  0  0  0  0  0  0  0
   -2.3644   -2.0383    0.0000 O   0  0  0  0  0  0  0  0  0  0  0  0
   -2.3644   -3.6690    0.0000 C   0  0  0  0  0  0  0  0  0  0  0  0
    1.1997   -4.9191    0.0000 C   0  0  0  0  0  0  0  0  0  0  0  0
    1.9141   -3.6845    0.0000 C   0  0  0  0  0  0  0  0  0  0  0  0
   -0.9434    0.2097    0.0000 C   0  0  0  0  0  0  0  0  0  0  0  0
    0.1684   -2.9488    0.0000 C   0  0  0  0  0  0  0  0  0  0  0  0
    2.0306   -6.3168    0.0000 C   0  0  0  0  0  0  0  0  0  0  0  0
   -1.6500   -1.6229    0.0000 C   0  0  0  0  0  0  0  0  0  0  0  0
   -1.6617   -4.0922    0.0000 C   0  0  0  0  0  0  0  0  0  0  0  0
    4.0417   -4.1038    0.0000 C   0  0  0  0  0  0  0  0  0  0  0  0
    0.4815    0.2174    0.0000 C   0  0  0  0  0  0  0  0  0  0  0  0
    2.6013    0.8503    0.0000 C   0  0  0  0  0  0  0  0  0  0  0  0
    4.0300    0.8580    0.0000 C   0  0  0  0  0  0  0  0  0  0  0  0
    4.7638   -2.0189    0.0000 C   0  0  0  0  0  0  0  0  0  0  0  0
    2.6013   -7.1555    0.0000 C   0  0  0  0  0  0  0  0  0  0  0  0
   -1.6656   -4.9075    0.0000 C   0  0  0  0  0  0  0  0  0  0  0  0
  2  8  1  0
  3  4  1  0
  4  2  1  0
  5  1  1  0
  6 20  1  0
  7 11  1  6
  8  7  1  0
  9  3  1  0
 10  7  1  0
  1 11  1  1
 12 17  1  0
 13  5  1  0
 14 27  1  0
 15 24  1  6
 16 22  1  0
 17 15  1  0
 18  1  1  0
 19 15  1  0
 20  9  1  0
 21 25  1  0
 22 26  1  0
 23 10  1  0
  2 24  1  1
 25 19  1  0
 26 14  1  0
 27 23  1  0
 28 31  1  0
 13 29  1  1
 30  3  2  0
 31 18  1  0
  6 32  1  1
  5 33  1  6
 10 34  1  6
 12 35  1  6
 21 36  1  1
 16 37  1  6
  6 38  1  0
  4 39  1  1
  8 40  1  1
 41 14  1  0
 10 42  1  0
 12 43  1  0
 22 44  1  6
 20 45  1  1
 25 46  1  1
 27 47  1  6
 48 29  1  0
 49 29  1  0
 31 50  1  1
 51 35  1  0
 52 45  1  0
 28 13  1  0
  6 16  1  0
 21 12  1  0
M  END

> <chembl_id>
CHEMBL274365

> <chembl_pref_name>
None


$$$$

     RDKit          2D

 49 51  0  0  1  0  0  0  0  0999 V2000
    4.4792   -6.8250    0.0000 C   0  0  0  0  0  0  0  0  0  0  0  0
    2.6000   -7.2250    0.0000 C   0  0  0  0  0  0  0  0  0  0  0  0
    1.2875   -7.2250    0.0000 C   0  0  0  0  0  0  0  0  0  0  0  0
    0.6292   -5.3292    0.0000 C   0  0  0  0  0  0  0  0  0  0  0  0
    1.9417   -7.6125    0.0000 C   0  0  0  0  0  0  0  0  0  0  0  0
    3.2500   -6.1000    0.0000 C   0  0  0  0  0  0  0  0  0  0  0  0
    2.6000   -6.4750    0.0000 C   0  0  0  0  0  0  0  0  0  0  0  0
    1.2875   -4.1917    0.0000 C   0  0  0  0  0  0  0  0  0  0  0  0
    1.2875   -6.4750    0.0000 O   0  0  0  0  0  0  0  0  0  0  0  0
    1.2875   -4.9500    0.0000 C   0  0  0  0  0  0  0  0  0  0  0  0
    1.9500   -3.7667    0.0000 C   0  0  0  0  0  0  0  0  0  0  0  0
    3.9167   -6.5000    0.0000 O   0  0  0  0  0  0  0  0  0  0  0  0
    5.2042   -5.9375    0.0000 C   0  0  0  0  0  0  0  0  0  0  0  0
    5.1750   -8.4000    0.0000 C   0  0  0  0  0  0  0  0  0  0  0  0
    3.2500   -5.3292    0.0000 C   0  0  0  0  0  0  0  0  0  0  0  0
    3.2542   -8.4000    0.0000 C   0  0  0  0  0  0  0  0  0  0  0  0
    4.1000   -8.7875    0.0000 C   0  0  0  0  0  0  0  0  0  0  0  0
    5.3625   -6.4625    0.0000 O   0  0  0  0  0  0  0  0  0  0  0  0
    3.9417   -9.2542    0.0000 O   0  0  0  0  0  0  0  0  0  0  0  0
    0.6292   -6.1000    0.0000 C   0  0  0  0  0  0  0  0  0  0  0  0
    5.8792   -9.2542    0.0000 C   0  0  0  0  0  0  0  0  0  0  0  0
    6.3417   -6.3500    0.0000 C   0  0  0  0  0  0  0  0  0  0  0  0
    3.2542   -7.6292    0.0000 O   0  0  0  0  0  0  0  0  0  0  0  0
    5.0375   -8.8917    0.0000 C   0  0  0  0  0  0  0  0  0  0  0  0
    2.6000   -4.1917    0.0000 C   0  0  0  0  0  0  0  0  0  0  0  0
    2.6000   -4.9500    0.0000 C   0  0  0  0  0  0  0  0  0  0  0  0
    7.2042   -5.9375    0.0000 C   0  0  0  0  0  0  0  0  0  0  0  0
    0.6250   -7.6292    0.0000 O   0  0  0  0  0  0  0  0  0  0  0  0
    6.4875   -6.8250    0.0000 C   0  0  0  0  0  0  0  0  0  0  0  0
    1.9667   -2.9750    0.0000 O   0  0  0  0  0  0  0  0  0  0  0  0
    0.6292   -4.5500    0.0000 O   0  0  0  0  0  0  0  0  0  0  0  0
    5.1750   -7.7625    0.0000 O   0  0  0  0  0  0  0  0  0  0  0  0
    3.2500   -4.5500    0.0000 O   0  0  0  0  0  0  0  0  0  0  0  0
    6.3417   -5.4625    0.0000 N   0  0  0  0  0  0  0  0  0  0  0  0
    1.9417   -5.3375    0.0000 O   0  0  0  0  0  0  0  0  0  0  0  0
    4.5375   -5.9375    0.0000 O   0  0  0  0  0  0  0  0  0  0  0  0
    6.4667   -9.2500    0.0000 O   0  0  0  0  0  0  0  0  0  0  0  0
   -0.0333   -4.9125    0.0000 C   0  0  0  0  0  0  0  0  0  0  0  0
    1.9417   -8.3667    0.0000 C   0  0  0  0  0  0  0  0  0  0  0  0
    1.9417   -6.0917    0.0000 C   0  0  0  0  0  0  0  0  0  0  0  0
    0.6250   -3.8000    0.0000 C   0  0  0  0  0  0  0  0  0  0  0  0
    5.7667   -8.3875    0.0000 C   0  0  0  0  0  0  0  0  0  0  0  0
    3.9417   -5.0000    0.0000 C   0  0  0  0  0  0  0  0  0  0  0  0
   -0.0208   -6.5000    0.0000 C   0  0  0  0  0  0  0  0  0  0  0  0
    5.4375   -9.5542    0.0000 C   0  0  0  0  0  0  0  0  0  0  0  0
    3.2542   -3.8000    0.0000 C   0  0  0  0  0  0  0  0  0  0  0  0
    7.3917   -6.9750    0.0000 C   0  0  0  0  0  0  0  0  0  0  0  0
    4.5292   -5.2667    0.0000 C   0  0  0  0  0  0  0  0  0  0  0  0
   -0.7000   -6.1375    0.0000 C   0  0  0  0  0  0  0  0  0  0  0  0
  2  7  1  0
  3  5  1  0
  4 10  1  0
  5  2  1  0
  6 12  1  6
  7  6  1  0
  8 11  1  0
  9  3  1  0
 10  8  1  0
 11 25  1  0
 12  1  1  0
 13  1  1  0
 14 17  1  0
 15  6  1  0
 16 23  1  0
 17 16  1  0
 18  1  1  0
 19 16  1  0
 20  9  1  0
 21 24  1  0
 22 13  1  0
  2 23  1  6
 24 19  1  0
 25 26  1  0
 26 15  1  0
 27 29  1  0
 28  3  2  0
 29 18  1  0
 30 11  2  0
  4 31  1  1
 32 14  1  0
 15 33  1  1
 34 22  1  0
 10 35  1  1
 36 13  1  0
 37 21  1  0
  4 38  1  6
  5 39  1  1
  7 40  1  6
  8 41  1  1
 42 14  1  0
 15 43  1  6
 20 44  1  6
 45 24  1  0
 25 46  1  6
 47 29  1  0
 48 36  1  0
 49 44  1  0
 27 22  1  0
 20  4  1  0
 21 14  1  0
M  END

> <chembl_id>
CHEMBL405923

> <chembl_pref_name>
None


$$$$

     RDKit          2D

 42 43  0  0  1  0  0  0  0  0999 V2000
    3.5792   -0.9292    0.0000 C   0  0  0  0  0  0  0  0  0  0  0  0
   -0.7583   -1.9667    0.0000 C   0  0  0  0  0  0  0  0  0  0  0  0
    3.5792   -0.1042    0.0000 C   0  0  0  0  0  0  0  0  0  0  0  0
   -0.0333   -0.7292    0.0000 C   0  0  0  0  0  0  0  0  0  0  0  0
   -0.7500   -1.1417    0.0000 C   0  0  0  0  0  0  0  0  0  0  0  0
   -0.0333    0.0958    0.0000 C   0  0  0  0  0  0  0  0  0  0  0  0
   -0.0500   -3.2042    0.0000 O   0  0  0  0  0  0  0  0  0  0  0  0
    0.6625   -3.6167    0.0000 C   0  0  0  0  0  0  0  0  0  0  0  0
    4.2917    0.3083    0.0000 C   0  0  0  0  0  0  0  0  0  0  0  0
    2.8667   -1.3500    0.0000 O   0  0  0  0  0  0  0  0  0  0  0  0
    1.3875   -0.7292    0.0000 C   0  0  0  0  0  0  0  0  0  0  0  0
    2.0667   -1.1375    0.0000 C   0  0  0  0  0  0  0  0  0  0  0  0
    4.2917   -1.3417    0.0000 O   0  0  0  0  0  0  0  0  0  0  0  0
   -0.0458   -2.3792    0.0000 C   0  0  0  0  0  0  0  0  0  0  0  0
    0.6750    0.5125    0.0000 C   0  0  0  0  0  0  0  0  0  0  0  0
    2.0792   -1.9625    0.0000 C   0  0  0  0  0  0  0  0  0  0  0  0
    1.3875    0.0958    0.0000 C   0  0  0  0  0  0  0  0  0  0  0  0
    5.0042   -0.1042    0.0000 C   0  0  0  0  0  0  0  0  0  0  0  0
    1.3750   -3.2042    0.0000 C   0  0  0  0  0  0  0  0  0  0  0  0
    1.3667   -2.3792    0.0000 C   0  0  0  0  0  0  0  0  0  0  0  0
   -0.7500    0.5083    0.0000 N   0  0  0  0  0  0  0  0  0  0  0  0
    4.2917    1.1333    0.0000 N   0  0  0  0  0  0  0  0  0  0  0  0
    5.0042   -0.9292    0.0000 C   0  0  0  0  0  0  0  0  0  0  0  0
    0.6625   -4.4417    0.0000 O   0  0  0  0  0  0  0  0  0  0  0  0
   -1.5833   -1.9667    0.0000 O   0  0  0  0  0  0  0  0  0  0  0  0
    2.8667    0.3000    0.0000 O   0  0  0  0  0  0  0  0  0  0  0  0
   -1.5500   -0.9250    0.0000 O   0  0  0  0  0  0  0  0  0  0  0  0
    0.6667   -1.1292    0.0000 O   0  0  0  0  0  0  0  0  0  0  0  0
   -1.1708   -2.6792    0.0000 C   0  0  0  0  0  0  0  0  0  0  0  0
   -0.7583    1.3333    0.0000 O   0  0  0  0  0  0  0  0  0  0  0  0
   -0.8333   -0.5125    0.0000 C   0  0  0  0  0  0  0  0  0  0  0  0
    1.3268   -1.4676    0.0000 C   0  0  0  0  0  0  0  0  0  0  0  0
   -0.6333   -2.9667    0.0000 C   0  0  0  0  0  0  0  0  0  0  0  0
    0.6750    1.3375    0.0000 C   0  0  0  0  0  0  0  0  0  0  0  0
    2.7917   -2.3667    0.0000 C   0  0  0  0  0  0  0  0  0  0  0  0
    2.0917   -3.6125    0.0000 C   0  0  0  0  0  0  0  0  0  0  0  0
    3.5792    1.5458    0.0000 C   0  0  0  0  0  0  0  0  0  0  0  0
    5.0042    1.5458    0.0000 C   0  0  0  0  0  0  0  0  0  0  0  0
    5.7167   -1.3500    0.0000 C   0  0  0  0  0  0  0  0  0  0  0  0
    0.6542   -1.9667    0.0000 C   0  0  0  0  0  0  0  0  0  0  0  0
   -1.4708    1.7458    0.0000 C   0  0  0  0  0  0  0  0  0  0  0  0
   -0.8500   -3.7625    0.0000 C   0  0  0  0  0  0  0  0  0  0  0  0
  2 14  1  0
  3  1  1  0
  4  6  1  0
  5  4  1  0
  6 15  1  0
  7  8  1  0
  8 19  1  0
  9  3  1  0
  1 10  1  1
 11 12  1  0
 12 10  1  6
 13  1  1  0
 14  7  1  0
 15 17  1  0
 16 12  1  0
 17 11  1  0
 18 23  1  0
 19 20  1  0
 20 16  1  0
 21  6  2  0
  9 22  1  1
 23 13  1  0
 24  8  2  0
  2 25  1  1
  3 26  1  6
  5 27  1  6
 11 28  1  0
  2 29  1  0
 30 21  1  0
  4 31  1  6
 11 32  1  1
 14 33  1  1
 15 34  1  6
 16 35  1  1
 19 36  1  1
 37 22  1  0
 38 22  1  0
 23 39  1  1
 40 28  1  0
 41 30  1  0
 42 33  1  0
  9 18  1  0
  2  5  1  0
M  END

> <chembl_id>
CHEMBL422520

> <chembl_pref_name>
None


$$$$

     RDKit          2D

 43 45  0  0  1  0  0  0  0  0999 V2000
   -1.5708   -3.6542    0.0000 C   0  0  0  0  0  0  0  0  0  0  0  0
   -1.5708   -2.8292    0.0000 C   0  0  0  0  0  0  0  0  0  0  0  0
    2.7667   -2.6167    0.0000 C   0  0  0  0  0  0  0  0  0  0  0  0
    2.7667   -1.7917    0.0000 C   0  0  0  0  0  0  0  0  0  0  0  0
   -0.8500   -2.4167    0.0000 C   0  0  0  0  0  0  0  0  0  0  0  0
   -3.1125   -3.2417    0.0000 C   0  0  0  0  0  0  0  0  0  0  0  0
   -2.3958   -3.6542    0.0000 O   0  0  0  0  0  0  0  0  0  0  0  0
   -0.8500   -1.5917    0.0000 C   0  0  0  0  0  0  0  0  0  0  0  0
   -2.3708   -2.6125    0.0000 O   0  0  0  0  0  0  0  0  0  0  0  0
   -0.8708   -4.8917    0.0000 O   0  0  0  0  0  0  0  0  0  0  0  0
   -0.1583   -5.3042    0.0000 C   0  0  0  0  0  0  0  0  0  0  0  0
    3.4792   -1.3792    0.0000 C   0  0  0  0  0  0  0  0  0  0  0  0
    2.0542   -3.0375    0.0000 O   0  0  0  0  0  0  0  0  0  0  0  0
    0.5667   -2.4167    0.0000 C   0  0  0  0  0  0  0  0  0  0  0  0
    1.2542   -2.8250    0.0000 C   0  0  0  0  0  0  0  0  0  0  0  0
   -0.8625   -4.0667    0.0000 C   0  0  0  0  0  0  0  0  0  0  0  0
    3.4792   -3.0292    0.0000 O   0  0  0  0  0  0  0  0  0  0  0  0
   -0.1458   -1.1750    0.0000 C   0  0  0  0  0  0  0  0  0  0  0  0
    1.2625   -3.6500    0.0000 C   0  0  0  0  0  0  0  0  0  0  0  0
    0.5667   -1.5917    0.0000 C   0  0  0  0  0  0  0  0  0  0  0  0
    4.1917   -1.7917    0.0000 C   0  0  0  0  0  0  0  0  0  0  0  0
    0.5542   -4.8917    0.0000 C   0  0  0  0  0  0  0  0  0  0  0  0
    0.5542   -4.0667    0.0000 C   0  0  0  0  0  0  0  0  0  0  0  0
    3.4792   -0.5542    0.0000 N   0  0  0  0  0  0  0  0  0  0  0  0
    4.1917   -2.6167    0.0000 C   0  0  0  0  0  0  0  0  0  0  0  0
   -3.9375   -3.3125    0.0000 O   0  0  0  0  0  0  0  0  0  0  0  0
   -0.1583   -6.1292    0.0000 O   0  0  0  0  0  0  0  0  0  0  0  0
   -1.5708   -1.1792    0.0000 O   0  0  0  0  0  0  0  0  0  0  0  0
    2.0500   -1.3875    0.0000 O   0  0  0  0  0  0  0  0  0  0  0  0
   -1.9875   -4.3667    0.0000 C   0  0  0  0  0  0  0  0  0  0  0  0
   -0.1458   -2.8167    0.0000 O   0  0  0  0  0  0  0  0  0  0  0  0
   -1.6500   -2.2000    0.0000 C   0  0  0  0  0  0  0  0  0  0  0  0
    0.5060   -3.1551    0.0000 C   0  0  0  0  0  0  0  0  0  0  0  0
   -1.4500   -4.6542    0.0000 C   0  0  0  0  0  0  0  0  0  0  0  0
   -0.1458   -0.3500    0.0000 C   0  0  0  0  0  0  0  0  0  0  0  0
    1.9792   -4.0542    0.0000 C   0  0  0  0  0  0  0  0  0  0  0  0
    1.2750   -5.3000    0.0000 C   0  0  0  0  0  0  0  0  0  0  0  0
    4.1917   -0.1417    0.0000 C   0  0  0  0  0  0  0  0  0  0  0  0
    2.7625   -0.1417    0.0000 C   0  0  0  0  0  0  0  0  0  0  0  0
    4.9042   -3.0375    0.0000 C   0  0  0  0  0  0  0  0  0  0  0  0
   -0.1625   -3.6542    0.0000 C   0  0  0  0  0  0  0  0  0  0  0  0
   -1.6708   -5.4500    0.0000 C   0  0  0  0  0  0  0  0  0  0  0  0
   -1.6981   -1.8373    0.0000 H   0  0  0  0  0  0  0  0  0  0  0  0
  2  1  1  0
  3 13  1  1
  4  3  1  0
  5  2  1  0
  6  7  1  0
  1  7  1  0
  8  5  1  0
  2  9  1  0
 10 16  1  0
 11 10  1  0
 12  4  1  0
 15 13  1  6
 14 20  1  0
 15 19  1  0
 16  1  1  0
 17  3  1  0
 18  8  1  0
 19 23  1  0
 20 18  1  0
 21 25  1  0
 22 11  1  0
 23 22  1  0
 12 24  1  1
 25 17  1  0
 26  6  2  0
 27 11  2  0
 28  8  2  0
  4 29  1  6
  1 30  1  6
 14 31  1  0
  5 32  1  6
 14 33  1  1
 16 34  1  1
 18 35  1  6
 19 36  1  1
 22 37  1  1
 38 24  1  0
 39 24  1  0
 25 40  1  1
 41 31  1  0
 42 34  1  0
  6  9  1  0
 15 14  1  0
 12 21  1  0
  2 43  1  1
M  END

> <chembl_id>
CHEMBL350000

> <chembl_pref_name>
None


$$$$

     RDKit          2D

 41 42  0  0  1  0  0  0  0  0999 V2000
    3.5792   -0.9292    0.0000 C   0  0  0  0  0  0  0  0  0  0  0  0
   -0.7583   -1.9667    0.0000 C   0  0  0  0  0  0  0  0  0  0  0  0
    3.5792   -0.1042    0.0000 C   0  0  0  0  0  0  0  0  0  0  0  0
   -0.0333   -0.7292    0.0000 C   0  0  0  0  0  0  0  0  0  0  0  0
   -0.7500   -1.1417    0.0000 C   0  0  0  0  0  0  0  0  0  0  0  0
   -0.0333    0.0958    0.0000 C   0  0  0  0  0  0  0  0  0  0  0  0
   -0.0500   -3.2042    0.0000 O   0  0  0  0  0  0  0  0  0  0  0  0
    0.6625   -3.6167    0.0000 C   0  0  0  0  0  0  0  0  0  0  0  0
    4.2917    0.3083    0.0000 C   0  0  0  0  0  0  0  0  0  0  0  0
    2.8667   -1.3500    0.0000 O   0  0  0  0  0  0  0  0  0  0  0  0
    1.3875   -0.7292    0.0000 C   0  0  0  0  0  0  0  0  0  0  0  0
    2.0667   -1.1375    0.0000 C   0  0  0  0  0  0  0  0  0  0  0  0
    4.2917   -1.3417    0.0000 O   0  0  0  0  0  0  0  0  0  0  0  0
   -0.0458   -2.3792    0.0000 C   0  0  0  0  0  0  0  0  0  0  0  0
    0.6750    0.5125    0.0000 C   0  0  0  0  0  0  0  0  0  0  0  0
    2.0792   -1.9625    0.0000 C   0  0  0  0  0  0  0  0  0  0  0  0
    1.3875    0.0958    0.0000 C   0  0  0  0  0  0  0  0  0  0  0  0
    5.0042   -0.1042    0.0000 C   0  0  0  0  0  0  0  0  0  0  0  0
    1.3750   -3.2042    0.0000 C   0  0  0  0  0  0  0  0  0  0  0  0
    1.3667   -2.3792    0.0000 C   0  0  0  0  0  0  0  0  0  0  0  0
   -0.7500    0.5083    0.0000 N   0  0  0  0  0  0  0  0  0  0  0  0
    4.2917    1.1333    0.0000 N   0  0  0  0  0  0  0  0  0  0  0  0
    5.0042   -0.9292    0.0000 C   0  0  0  0  0  0  0  0  0  0  0  0
    0.6625   -4.4417    0.0000 O   0  0  0  0  0  0  0  0  0  0  0  0
   -1.5833   -1.9667    0.0000 O   0  0  0  0  0  0  0  0  0  0  0  0
    2.8667    0.3000    0.0000 O   0  0  0  0  0  0  0  0  0  0  0  0
   -1.5500   -0.9250    0.0000 O   0  0  0  0  0  0  0  0  0  0  0  0
    0.6667   -1.1292    0.0000 O   0  0  0  0  0  0  0  0  0  0  0  0
   -1.1708   -2.6792    0.0000 C   0  0  0  0  0  0  0  0  0  0  0  0
   -0.7583    1.3333    0.0000 O   0  0  0  0  0  0  0  0  0  0  0  0
   -0.8333   -0.5125    0.0000 C   0  0  0  0  0  0  0  0  0  0  0  0
    1.3563   -1.5855    0.0000 C   0  0  0  0  0  0  0  0  0  0  0  0
   -0.6333   -2.9667    0.0000 C   0  0  0  0  0  0  0  0  0  0  0  0
    0.6750    1.3375    0.0000 C   0  0  0  0  0  0  0  0  0  0  0  0
    2.7917   -2.3667    0.0000 C   0  0  0  0  0  0  0  0  0  0  0  0
    2.0917   -3.6125    0.0000 C   0  0  0  0  0  0  0  0  0  0  0  0
    3.5792    1.5458    0.0000 C   0  0  0  0  0  0  0  0  0  0  0  0
    5.0042    1.5458    0.0000 C   0  0  0  0  0  0  0  0  0  0  0  0
    5.7167   -1.3500    0.0000 C   0  0  0  0  0  0  0  0  0  0  0  0
    0.6542   -1.9667    0.0000 C   0  0  0  0  0  0  0  0  0  0  0  0
   -0.8500   -3.7625    0.0000 C   0  0  0  0  0  0  0  0  0  0  0  0
  2 14  1  0
  3  1  1  0
  4  6  1  0
  5  4  1  0
  6 15  1  0
  7  8  1  0
  8 19  1  0
  9  3  1  0
  1 10  1  1
 11 12  1  0
 12 10  1  6
 13  1  1  0
 14  7  1  0
 15 17  1  0
 16 12  1  0
 17 11  1  0
 18 23  1  0
 19 20  1  0
 20 16  1  0
 21  6  2  0
  9 22  1  1
 23 13  1  0
 24  8  2  0
  2 25  1  1
  3 26  1  6
  5 27  1  6
 11 28  1  0
  2 29  1  0
 30 21  1  0
  4 31  1  6
 11 32  1  1
 14 33  1  1
 15 34  1  6
 16 35  1  1
 19 36  1  1
 37 22  1  0
 38 22  1  0
 23 39  1  1
 40 28  1  0
 41 33  1  0
  9 18  1  0
  2  5  1  0
M  END

> <chembl_id>
CHEMBL349313

> <chembl_pref_name>
None


$$$$

     RDKit          2D

 45 46  0  0  1  0  0  0  0  0999 V2000
    2.3542   -1.3375    0.0000 C   0  0  0  0  0  0  0  0  0  0  0  0
    0.1417   -2.7792    0.0000 C   0  0  0  0  0  0  0  0  0  0  0  0
   -0.5708   -4.0250    0.0000 C   0  0  0  0  0  0  0  0  0  0  0  0
   -1.9833   -2.3667    0.0000 C   0  0  0  0  0  0  0  0  0  0  0  0
    0.1417   -3.6042    0.0000 C   0  0  0  0  0  0  0  0  0  0  0  0
    2.3542   -0.5125    0.0000 C   0  0  0  0  0  0  0  0  0  0  0  0
    0.8417   -1.5417    0.0000 C   0  0  0  0  0  0  0  0  0  0  0  0
    0.8500   -2.3667    0.0000 C   0  0  0  0  0  0  0  0  0  0  0  0
   -1.2625   -1.1292    0.0000 C   0  0  0  0  0  0  0  0  0  0  0  0
   -1.2833   -3.6125    0.0000 O   0  0  0  0  0  0  0  0  0  0  0  0
   -1.9833   -1.5417    0.0000 C   0  0  0  0  0  0  0  0  0  0  0  0
   -1.2625   -0.3042    0.0000 C   0  0  0  0  0  0  0  0  0  0  0  0
    1.6417   -1.7542    0.0000 O   0  0  0  0  0  0  0  0  0  0  0  0
    3.0667   -0.0917    0.0000 C   0  0  0  0  0  0  0  0  0  0  0  0
    0.1542   -1.1292    0.0000 C   0  0  0  0  0  0  0  0  0  0  0  0
    3.0667   -1.7417    0.0000 O   0  0  0  0  0  0  0  0  0  0  0  0
   -1.2750   -2.7875    0.0000 C   0  0  0  0  0  0  0  0  0  0  0  0
    1.6792   -3.1917    0.0000 C   0  0  0  0  0  0  0  0  0  0  0  0
    0.8542   -3.1917    0.0000 O   0  0  0  0  0  0  0  0  0  0  0  0
   -0.5583    0.1083    0.0000 C   0  0  0  0  0  0  0  0  0  0  0  0
    0.1542   -0.3042    0.0000 C   0  0  0  0  0  0  0  0  0  0  0  0
    3.7792   -0.5125    0.0000 C   0  0  0  0  0  0  0  0  0  0  0  0
    3.0667    0.7333    0.0000 N   0  0  0  0  0  0  0  0  0  0  0  0
    1.4625   -3.9917    0.0000 S   0  0  0  0  0  0  0  0  0  0  0  0
   -0.5708   -4.8500    0.0000 O   0  0  0  0  0  0  0  0  0  0  0  0
    3.7792   -1.3375    0.0000 C   0  0  0  0  0  0  0  0  0  0  0  0
   -1.9833    0.1083    0.0000 O   0  0  0  0  0  0  0  0  0  0  0  0
   -2.8083   -2.3667    0.0000 O   0  0  0  0  0  0  0  0  0  0  0  0
    1.6375   -0.1042    0.0000 O   0  0  0  0  0  0  0  0  0  0  0  0
    2.3917   -3.6042    0.0000 S   0  0  0  0  0  0  0  0  0  0  0  0
   -2.7833   -1.3292    0.0000 O   0  0  0  0  0  0  0  0  0  0  0  0
   -0.5583   -1.5375    0.0000 O   0  0  0  0  0  0  0  0  0  0  0  0
   -2.4000   -3.0792    0.0000 C   0  0  0  0  0  0  0  0  0  0  0  0
    0.8625   -4.0167    0.0000 C   0  0  0  0  0  0  0  0  0  0  0  0
    1.5667   -2.7750    0.0000 C   0  0  0  0  0  0  0  0  0  0  0  0
   -2.0625   -0.9167    0.0000 C   0  0  0  0  0  0  0  0  0  0  0  0
    0.0935   -1.9348    0.0000 C   0  0  0  0  0  0  0  0  0  0  0  0
   -1.8625   -3.3667    0.0000 C   0  0  0  0  0  0  0  0  0  0  0  0
   -0.5583    0.9333    0.0000 C   0  0  0  0  0  0  0  0  0  0  0  0
    3.7792    1.1458    0.0000 C   0  0  0  0  0  0  0  0  0  0  0  0
    2.3500    1.1458    0.0000 C   0  0  0  0  0  0  0  0  0  0  0  0
    4.4917   -1.7542    0.0000 C   0  0  0  0  0  0  0  0  0  0  0  0
    3.1042   -3.1917    0.0000 C   0  0  0  0  0  0  0  0  0  0  0  0
   -0.5750   -2.3667    0.0000 C   0  0  0  0  0  0  0  0  0  0  0  0
   -2.0833   -4.1667    0.0000 C   0  0  0  0  0  0  0  0  0  0  0  0
  2  8  1  0
  3  5  1  0
  4 11  1  0
  5  2  1  0
  6  1  1  0
  7 13  1  6
  8  7  1  0
  9 12  1  0
 10  3  1  0
 11  9  1  0
 12 20  1  0
  1 13  1  1
 14  6  1  0
 15  7  1  0
 16  1  1  0
 17 10  1  0
 18 19  1  0
  2 19  1  1
 20 21  1  0
 21 15  1  0
 22 26  1  0
 14 23  1  1
 24 18  2  0
 25  3  2  0
 26 16  1  0
 27 12  2  0
  4 28  1  1
  6 29  1  6
 30 18  1  0
 11 31  1  6
 15 32  1  6
  4 33  1  0
  5 34  1  1
  8 35  1  1
  9 36  1  6
 15 37  1  0
 17 38  1  1
 20 39  1  6
 40 23  1  0
 41 23  1  0
 26 42  1  1
 43 30  1  0
 44 32  1  0
 45 38  1  0
 14 22  1  0
  4 17  1  0
M  END

> <chembl_id>
CHEMBL158444

> <chembl_pref_name>
None


$$$$

     RDKit          2D

 43 44  0  0  1  0  0  0  0  0999 V2000
    3.5792   -0.9292    0.0000 C   0  0  0  0  0  0  0  0  0  0  0  0
   -0.7583   -1.9667    0.0000 C   0  0  0  0  0  0  0  0  0  0  0  0
    3.5792   -0.1042    0.0000 C   0  0  0  0  0  0  0  0  0  0  0  0
   -0.0333   -0.7292    0.0000 C   0  0  0  0  0  0  0  0  0  0  0  0
   -0.7500   -1.1417    0.0000 C   0  0  0  0  0  0  0  0  0  0  0  0
   -0.0333    0.0958    0.0000 C   0  0  0  0  0  0  0  0  0  0  0  0
   -0.0500   -3.2042    0.0000 O   0  0  0  0  0  0  0  0  0  0  0  0
    0.6625   -3.6167    0.0000 C   0  0  0  0  0  0  0  0  0  0  0  0
    4.2917    0.3083    0.0000 C   0  0  0  0  0  0  0  0  0  0  0  0
    2.8667   -1.3500    0.0000 O   0  0  0  0  0  0  0  0  0  0  0  0
    1.3875   -0.7292    0.0000 C   0  0  0  0  0  0  0  0  0  0  0  0
    2.0667   -1.1375    0.0000 C   0  0  0  0  0  0  0  0  0  0  0  0
    4.2917   -1.3417    0.0000 O   0  0  0  0  0  0  0  0  0  0  0  0
   -0.0458   -2.3792    0.0000 C   0  0  0  0  0  0  0  0  0  0  0  0
    0.6750    0.5125    0.0000 C   0  0  0  0  0  0  0  0  0  0  0  0
    2.0792   -1.9625    0.0000 C   0  0  0  0  0  0  0  0  0  0  0  0
    1.3875    0.0958    0.0000 C   0  0  0  0  0  0  0  0  0  0  0  0
    5.0042   -0.1042    0.0000 C   0  0  0  0  0  0  0  0  0  0  0  0
    1.3750   -3.2042    0.0000 C   0  0  0  0  0  0  0  0  0  0  0  0
    1.3667   -2.3792    0.0000 C   0  0  0  0  0  0  0  0  0  0  0  0
   -0.7500    0.5083    0.0000 N   0  0  0  0  0  0  0  0  0  0  0  0
    4.2917    1.1333    0.0000 N   0  0  0  0  0  0  0  0  0  0  0  0
    5.0042   -0.9292    0.0000 C   0  0  0  0  0  0  0  0  0  0  0  0
    0.6625   -4.4417    0.0000 O   0  0  0  0  0  0  0  0  0  0  0  0
   -1.5833   -1.9667    0.0000 O   0  0  0  0  0  0  0  0  0  0  0  0
    2.8667    0.3000    0.0000 O   0  0  0  0  0  0  0  0  0  0  0  0
   -1.5500   -0.9250    0.0000 O   0  0  0  0  0  0  0  0  0  0  0  0
    0.6667   -1.1292    0.0000 O   0  0  0  0  0  0  0  0  0  0  0  0
   -1.1708   -2.6792    0.0000 C   0  0  0  0  0  0  0  0  0  0  0  0
   -0.7583    1.3333    0.0000 O   0  0  0  0  0  0  0  0  0  0  0  0
   -0.8333   -0.5125    0.0000 C   0  0  0  0  0  0  0  0  0  0  0  0
    1.3857   -1.4676    0.0000 C   0  0  0  0  0  0  0  0  0  0  0  0
   -0.6333   -2.9667    0.0000 C   0  0  0  0  0  0  0  0  0  0  0  0
    0.6750    1.3375    0.0000 C   0  0  0  0  0  0  0  0  0  0  0  0
    2.7917   -2.3667    0.0000 C   0  0  0  0  0  0  0  0  0  0  0  0
    2.0917   -3.6125    0.0000 C   0  0  0  0  0  0  0  0  0  0  0  0
    3.5792    1.5458    0.0000 C   0  0  0  0  0  0  0  0  0  0  0  0
    5.0042    1.5458    0.0000 C   0  0  0  0  0  0  0  0  0  0  0  0
    5.7167   -1.3500    0.0000 C   0  0  0  0  0  0  0  0  0  0  0  0
   -1.4708    1.7458    0.0000 C   0  0  0  0  0  0  0  0  0  0  0  0
    0.6542   -1.9667    0.0000 C   0  0  0  0  0  0  0  0  0  0  0  0
   -0.8500   -3.7625    0.0000 C   0  0  0  0  0  0  0  0  0  0  0  0
   -1.4708    2.5708    0.0000 C   0  0  0  0  0  0  0  0  0  0  0  0
  2 14  1  0
  3  1  1  0
  4  6  1  0
  5  4  1  0
  6 15  1  0
  7  8  1  0
  8 19  1  0
  9  3  1  0
  1 10  1  1
 11 12  1  0
 12 10  1  6
 13  1  1  0
 14  7  1  0
 15 17  1  0
 16 12  1  0
 17 11  1  0
 18 23  1  0
 19 20  1  0
 20 16  1  0
 21  6  2  0
  9 22  1  1
 23 13  1  0
 24  8  2  0
  2 25  1  1
  3 26  1  6
  5 27  1  6
 11 28  1  0
  2 29  1  0
 30 21  1  0
  4 31  1  6
 11 32  1  1
 14 33  1  1
 15 34  1  6
 16 35  1  1
 19 36  1  1
 37 22  1  0
 38 22  1  0
 23 39  1  1
 40 30  1  0
 41 28  1  0
 42 33  1  0
 43 40  1  0
  9 18  1  0
  2  5  1  0
M  END

> <chembl_id>
CHEMBL346097

> <chembl_pref_name>
None


$$$$

     RDKit          2D

 58 62  0  0  1  0  0  0  0  0999 V2000
    1.0542   -3.4792    0.0000 C   0  0  0  0  0  0  0  0  0  0  0  0
    1.0542   -2.6542    0.0000 C   0  0  0  0  0  0  0  0  0  0  0  0
   -0.4875   -3.0667    0.0000 C   0  0  0  0  0  0  0  0  0  0  0  0
    0.2542   -2.4417    0.0000 N   0  0  0  0  0  0  0  0  0  0  0  0
    0.2292   -3.4792    0.0000 O   0  0  0  0  0  0  0  0  0  0  0  0
    5.3917   -2.4500    0.0000 C   0  0  0  0  0  0  0  0  0  0  0  0
    1.7750   -2.2417    0.0000 C   0  0  0  0  0  0  0  0  0  0  0  0
    5.3917   -1.6250    0.0000 C   0  0  0  0  0  0  0  0  0  0  0  0
    1.7750   -1.4167    0.0000 C   0  0  0  0  0  0  0  0  0  0  0  0
    1.7542   -4.7250    0.0000 O   0  0  0  0  0  0  0  0  0  0  0  0
    2.4667   -5.1375    0.0000 C   0  0  0  0  0  0  0  0  0  0  0  0
    6.1042   -1.2042    0.0000 C   0  0  0  0  0  0  0  0  0  0  0  0
    4.6792   -2.8667    0.0000 O   0  0  0  0  0  0  0  0  0  0  0  0
    3.1917   -2.2417    0.0000 C   0  0  0  0  0  0  0  0  0  0  0  0
    1.7625   -3.9000    0.0000 C   0  0  0  0  0  0  0  0  0  0  0  0
    3.8792   -2.6542    0.0000 C   0  0  0  0  0  0  0  0  0  0  0  0
    6.1042   -2.8542    0.0000 O   0  0  0  0  0  0  0  0  0  0  0  0
    2.4792   -1.0042    0.0000 C   0  0  0  0  0  0  0  0  0  0  0  0
    3.8875   -3.4792    0.0000 C   0  0  0  0  0  0  0  0  0  0  0  0
    3.1917   -1.4167    0.0000 C   0  0  0  0  0  0  0  0  0  0  0  0
   -0.4625   -2.0292    0.0000 C   0  0  0  0  0  0  0  0  0  0  0  0
    6.8167   -1.6250    0.0000 C   0  0  0  0  0  0  0  0  0  0  0  0
    3.1792   -4.7167    0.0000 C   0  0  0  0  0  0  0  0  0  0  0  0
    3.1792   -3.8917    0.0000 C   0  0  0  0  0  0  0  0  0  0  0  0
   -1.3125   -3.1417    0.0000 O   0  0  0  0  0  0  0  0  0  0  0  0
    6.1042   -0.3792    0.0000 N   0  0  0  0  0  0  0  0  0  0  0  0
    6.8167   -2.4500    0.0000 C   0  0  0  0  0  0  0  0  0  0  0  0
    1.0542   -1.0042    0.0000 O   0  0  0  0  0  0  0  0  0  0  0  0
    2.4667   -5.9625    0.0000 O   0  0  0  0  0  0  0  0  0  0  0  0
    4.6750   -1.2167    0.0000 O   0  0  0  0  0  0  0  0  0  0  0  0
   -3.3333    0.4333    0.0000 O   0  0  0  0  0  0  0  0  0  0  0  0
    0.6375   -4.1917    0.0000 C   0  0  0  0  0  0  0  0  0  0  0  0
    2.4792   -2.6500    0.0000 O   0  0  0  0  0  0  0  0  0  0  0  0
   -0.4708   -1.2042    0.0000 C   0  0  0  0  0  0  0  0  0  0  0  0
   -2.6125    0.0250    0.0000 C   0  0  0  0  0  0  0  0  0  0  0  0
    0.9750   -2.0292    0.0000 C   0  0  0  0  0  0  0  0  0  0  0  0
   -1.1833   -0.7917    0.0000 C   0  0  0  0  0  0  0  0  0  0  0  0
   -3.3333    1.2583    0.0000 C   0  0  0  0  0  0  0  0  0  0  0  0
    3.1310   -3.0179    0.0000 C   0  0  0  0  0  0  0  0  0  0  0  0
   -1.8958    0.4458    0.0000 C   0  0  0  0  0  0  0  0  0  0  0  0
   -2.6083   -0.8042    0.0000 C   0  0  0  0  0  0  0  0  0  0  0  0
   -1.1833    0.0333    0.0000 C   0  0  0  0  0  0  0  0  0  0  0  0
   -1.8958   -1.2042    0.0000 C   0  0  0  0  0  0  0  0  0  0  0  0
    1.1750   -4.4792    0.0000 C   0  0  0  0  0  0  0  0  0  0  0  0
    2.4792   -0.1792    0.0000 C   0  0  0  0  0  0  0  0  0  0  0  0
    4.6042   -3.8875    0.0000 C   0  0  0  0  0  0  0  0  0  0  0  0
    3.9000   -5.1292    0.0000 C   0  0  0  0  0  0  0  0  0  0  0  0
    6.8167    0.0333    0.0000 C   0  0  0  0  0  0  0  0  0  0  0  0
    5.3875    0.0333    0.0000 C   0  0  0  0  0  0  0  0  0  0  0  0
    7.5292   -2.8667    0.0000 C   0  0  0  0  0  0  0  0  0  0  0  0
    2.4625   -3.4792    0.0000 C   0  0  0  0  0  0  0  0  0  0  0  0
   -2.6208    1.6833    0.0000 C   0  0  0  0  0  0  0  0  0  0  0  0
   -4.0458    1.6708    0.0000 C   0  0  0  0  0  0  0  0  0  0  0  0
    0.9542   -5.2792    0.0000 C   0  0  0  0  0  0  0  0  0  0  0  0
   -4.0583    2.4875    0.0000 C   0  0  0  0  0  0  0  0  0  0  0  0
   -2.6208    2.5000    0.0000 C   0  0  0  0  0  0  0  0  0  0  0  0
   -3.3375    2.9083    0.0000 C   0  0  0  0  0  0  0  0  0  0  0  0
    0.9245   -1.6626    0.0000 H   0  0  0  0  0  0  0  0  0  0  0  0
  2  1  1  0
  3  5  1  0
  2  4  1  0
  1  5  1  0
  6 13  1  1
  7  2  1  0
  8  6  1  0
  9  7  1  0
 10 15  1  0
 11 10  1  0
 12  8  1  0
 16 13  1  6
 14 20  1  0
 15  1  1  0
 16 19  1  0
 17  6  1  0
 18  9  1  0
 19 24  1  0
 20 18  1  0
 21  4  1  0
 22 27  1  0
 23 11  1  0
 24 23  1  0
 25  3  2  0
 12 26  1  1
 27 17  1  0
 28  9  2  0
 29 11  2  0
  8 30  1  6
 31 35  1  0
  1 32  1  6
 14 33  1  0
 34 21  1  0
 35 41  1  0
  7 36  1  6
 37 34  1  0
 38 31  1  0
 14 39  1  1
 40 42  1  0
 41 43  2  0
 42 37  2  0
 43 37  1  0
 15 44  1  1
 18 45  1  6
 19 46  1  1
 23 47  1  1
 48 26  1  0
 49 26  1  0
 27 50  1  1
 51 33  1  0
 52 38  2  0
 53 38  1  0
 54 44  1  0
 55 53  2  0
 56 52  1  0
 57 55  1  0
  3  4  1  0
 16 14  1  0
 35 40  2  0
 12 22  1  0
 57 56  2  0
  2 58  1  1
M  END

> <chembl_id>
CHEMBL345508

> <chembl_pref_name>
None


$$$$

     RDKit          2D

 53 56  0  0  1  0  0  0  0  0999 V2000
    4.0750   -3.9875    0.0000 C   0  0  0  0  0  0  0  0  0  0  0  0
    4.0792   -3.1625    0.0000 C   0  0  0  0  0  0  0  0  0  0  0  0
    2.5375   -3.5750    0.0000 C   0  0  0  0  0  0  0  0  0  0  0  0
    3.2500   -3.9875    0.0000 O   0  0  0  0  0  0  0  0  0  0  0  0
    3.2792   -2.9417    0.0000 N   0  0  0  0  0  0  0  0  0  0  0  0
    8.4125   -2.9500    0.0000 C   0  0  0  0  0  0  0  0  0  0  0  0
    4.8000   -2.7500    0.0000 C   0  0  0  0  0  0  0  0  0  0  0  0
    8.4125   -2.1250    0.0000 C   0  0  0  0  0  0  0  0  0  0  0  0
    4.8000   -1.9250    0.0000 C   0  0  0  0  0  0  0  0  0  0  0  0
    4.7792   -5.2250    0.0000 O   0  0  0  0  0  0  0  0  0  0  0  0
    5.4917   -5.6375    0.0000 C   0  0  0  0  0  0  0  0  0  0  0  0
    9.1250   -1.7125    0.0000 C   0  0  0  0  0  0  0  0  0  0  0  0
    7.7000   -3.3667    0.0000 O   0  0  0  0  0  0  0  0  0  0  0  0
    6.2167   -2.7500    0.0000 C   0  0  0  0  0  0  0  0  0  0  0  0
    4.7875   -4.4000    0.0000 C   0  0  0  0  0  0  0  0  0  0  0  0
    6.9042   -3.1542    0.0000 C   0  0  0  0  0  0  0  0  0  0  0  0
    9.1250   -3.3625    0.0000 O   0  0  0  0  0  0  0  0  0  0  0  0
    5.5042   -1.5042    0.0000 C   0  0  0  0  0  0  0  0  0  0  0  0
    6.9125   -3.9792    0.0000 C   0  0  0  0  0  0  0  0  0  0  0  0
    6.2167   -1.9250    0.0000 C   0  0  0  0  0  0  0  0  0  0  0  0
    9.8375   -2.1250    0.0000 C   0  0  0  0  0  0  0  0  0  0  0  0
    6.2042   -5.2250    0.0000 C   0  0  0  0  0  0  0  0  0  0  0  0
    6.2000   -4.4000    0.0000 C   0  0  0  0  0  0  0  0  0  0  0  0
    1.7125   -3.6417    0.0000 O   0  0  0  0  0  0  0  0  0  0  0  0
    9.1250   -0.8875    0.0000 N   0  0  0  0  0  0  0  0  0  0  0  0
    9.8375   -2.9500    0.0000 C   0  0  0  0  0  0  0  0  0  0  0  0
    4.0792   -1.5125    0.0000 O   0  0  0  0  0  0  0  0  0  0  0  0
    5.4917   -6.4625    0.0000 O   0  0  0  0  0  0  0  0  0  0  0  0
    7.7000   -1.7167    0.0000 O   0  0  0  0  0  0  0  0  0  0  0  0
    3.6625   -4.7000    0.0000 C   0  0  0  0  0  0  0  0  0  0  0  0
    5.5000   -3.1500    0.0000 O   0  0  0  0  0  0  0  0  0  0  0  0
    2.5625   -2.5417    0.0000 C   0  0  0  0  0  0  0  0  0  0  0  0
    4.0000   -2.5292    0.0000 C   0  0  0  0  0  0  0  0  0  0  0  0
    6.1855   -3.6062    0.0000 C   0  0  0  0  0  0  0  0  0  0  0  0
    4.2000   -4.9875    0.0000 C   0  0  0  0  0  0  0  0  0  0  0  0
    1.1167   -0.0750    0.0000 C   0  0  0  0  0  0  0  0  0  0  0  0
    5.5042   -0.6792    0.0000 C   0  0  0  0  0  0  0  0  0  0  0  0
    7.6250   -4.3792    0.0000 C   0  0  0  0  0  0  0  0  0  0  0  0
    6.9250   -5.6292    0.0000 C   0  0  0  0  0  0  0  0  0  0  0  0
    8.4125   -0.4750    0.0000 C   0  0  0  0  0  0  0  0  0  0  0  0
    9.8375   -0.4750    0.0000 C   0  0  0  0  0  0  0  0  0  0  0  0
   10.5500   -3.3667    0.0000 C   0  0  0  0  0  0  0  0  0  0  0  0
    1.8375   -0.4792    0.0000 C   0  0  0  0  0  0  0  0  0  0  0  0
    5.4875   -3.9875    0.0000 C   0  0  0  0  0  0  0  0  0  0  0  0
    1.1125    0.7458    0.0000 C   0  0  0  0  0  0  0  0  0  0  0  0
    0.4125   -0.5000    0.0000 C   0  0  0  0  0  0  0  0  0  0  0  0
    2.5625   -1.7167    0.0000 C   0  0  0  0  0  0  0  0  0  0  0  0
    1.8417   -1.3042    0.0000 C   0  0  0  0  0  0  0  0  0  0  0  0
    3.9792   -5.7792    0.0000 C   0  0  0  0  0  0  0  0  0  0  0  0
   -0.3083   -0.0917    0.0000 C   0  0  0  0  0  0  0  0  0  0  0  0
    0.3917    1.1583    0.0000 C   0  0  0  0  0  0  0  0  0  0  0  0
   -0.3208    0.7333    0.0000 C   0  0  0  0  0  0  0  0  0  0  0  0
    3.9543   -2.1703    0.0000 H   0  0  0  0  0  0  0  0  0  0  0  0
  2  1  1  0
  3  4  1  0
  1  4  1  0
  2  5  1  0
  6 13  1  1
  7  2  1  0
  8  6  1  0
  9  7  1  0
 10 15  1  0
 11 10  1  0
 12  8  1  0
 16 13  1  6
 14 20  1  0
 15  1  1  0
 16 19  1  0
 17  6  1  0
 18  9  1  0
 19 23  1  0
 20 18  1  0
 21 26  1  0
 22 11  1  0
 23 22  1  0
 24  3  2  0
 12 25  1  1
 26 17  1  0
 27  9  2  0
 28 11  2  0
  8 29  1  6
  1 30  1  6
 14 31  1  0
 32  5  1  0
  7 33  1  6
 14 34  1  1
 15 35  1  1
 36 43  1  0
 18 37  1  6
 19 38  1  1
 22 39  1  1
 40 25  1  0
 41 25  1  0
 26 42  1  1
 43 48  1  0
 44 31  1  0
 45 36  2  0
 46 36  1  0
 47 32  1  0
 48 47  1  0
 49 35  1  0
 50 46  2  0
 51 45  1  0
 52 50  1  0
  3  5  1  0
 16 14  1  0
 52 51  2  0
 12 21  1  0
  2 53  1  1
M  END

> <chembl_id>
CHEMBL160155

> <chembl_pref_name>
None


$$$$

     RDKit          2D

 39 40  0  0  1  0  0  0  0  0999 V2000
    2.5500   -0.8042    0.0000 C   0  0  0  0  0  0  0  0  0  0  0  0
    2.5500    0.0208    0.0000 C   0  0  0  0  0  0  0  0  0  0  0  0
   -1.0708   -0.6042    0.0000 C   0  0  0  0  0  0  0  0  0  0  0  0
   -0.3708   -3.4917    0.0000 C   0  0  0  0  0  0  0  0  0  0  0  0
    3.2625    0.4333    0.0000 C   0  0  0  0  0  0  0  0  0  0  0  0
    1.8375   -1.2250    0.0000 O   0  0  0  0  0  0  0  0  0  0  0  0
   -1.0833   -3.0792    0.0000 O   0  0  0  0  0  0  0  0  0  0  0  0
   -1.7833   -1.0167    0.0000 C   0  0  0  0  0  0  0  0  0  0  0  0
    0.3542   -0.6042    0.0000 C   0  0  0  0  0  0  0  0  0  0  0  0
    1.0417   -1.0125    0.0000 C   0  0  0  0  0  0  0  0  0  0  0  0
   -1.0708    0.2208    0.0000 C   0  0  0  0  0  0  0  0  0  0  0  0
    3.2625   -1.2167    0.0000 O   0  0  0  0  0  0  0  0  0  0  0  0
   -1.7875   -1.8417    0.0000 C   0  0  0  0  0  0  0  0  0  0  0  0
   -0.3583    0.6375    0.0000 C   0  0  0  0  0  0  0  0  0  0  0  0
    1.0417   -1.8375    0.0000 C   0  0  0  0  0  0  0  0  0  0  0  0
    0.3542    0.2208    0.0000 C   0  0  0  0  0  0  0  0  0  0  0  0
   -1.0833   -2.2542    0.0000 C   0  0  0  0  0  0  0  0  0  0  0  0
    3.9750    0.0208    0.0000 C   0  0  0  0  0  0  0  0  0  0  0  0
    0.3417   -3.0792    0.0000 C   0  0  0  0  0  0  0  0  0  0  0  0
    0.3375   -2.2542    0.0000 C   0  0  0  0  0  0  0  0  0  0  0  0
    3.2625    1.2583    0.0000 N   0  0  0  0  0  0  0  0  0  0  0  0
    3.9750   -0.8042    0.0000 C   0  0  0  0  0  0  0  0  0  0  0  0
   -0.3708   -4.3167    0.0000 O   0  0  0  0  0  0  0  0  0  0  0  0
   -1.7833    0.6333    0.0000 O   0  0  0  0  0  0  0  0  0  0  0  0
    1.8292    0.4250    0.0000 O   0  0  0  0  0  0  0  0  0  0  0  0
   -0.3625   -1.0042    0.0000 O   0  0  0  0  0  0  0  0  0  0  0  0
   -2.6125   -1.8417    0.0000 O   0  0  0  0  0  0  0  0  0  0  0  0
   -1.8708   -0.3875    0.0000 C   0  0  0  0  0  0  0  0  0  0  0  0
    0.3524   -1.4605    0.0000 C   0  0  0  0  0  0  0  0  0  0  0  0
   -2.2083   -2.5542    0.0000 C   0  0  0  0  0  0  0  0  0  0  0  0
   -0.3583    1.4625    0.0000 C   0  0  0  0  0  0  0  0  0  0  0  0
    1.7625   -2.2417    0.0000 C   0  0  0  0  0  0  0  0  0  0  0  0
   -1.6708   -2.8417    0.0000 C   0  0  0  0  0  0  0  0  0  0  0  0
    1.0542   -3.4875    0.0000 C   0  0  0  0  0  0  0  0  0  0  0  0
    2.5417    1.6708    0.0000 C   0  0  0  0  0  0  0  0  0  0  0  0
    3.9750    1.6708    0.0000 C   0  0  0  0  0  0  0  0  0  0  0  0
    4.6875   -1.2250    0.0000 C   0  0  0  0  0  0  0  0  0  0  0  0
   -0.3833   -1.8417    0.0000 C   0  0  0  0  0  0  0  0  0  0  0  0
   -1.8833   -3.6375    0.0000 C   0  0  0  0  0  0  0  0  0  0  0  0
  2  1  1  0
  3 11  1  0
  4 19  1  0
  5  2  1  0
  1  6  1  1
  7  4  1  0
  8  3  2  0
  9 10  1  0
 10  6  1  6
 11 14  1  0
 12  1  1  0
 13 17  1  0
 14 16  1  0
 15 10  1  0
 16  9  1  0
 17  7  1  0
 18 22  1  0
 19 20  1  0
 20 15  1  0
  5 21  1  1
 22 12  1  0
 23  4  2  0
 24 11  2  0
  2 25  1  6
  9 26  1  6
 13 27  1  1
 28  3  1  0
  9 29  1  0
 13 30  1  0
 14 31  1  6
 15 32  1  1
 17 33  1  1
 19 34  1  1
 35 21  1  0
 36 21  1  0
 22 37  1  1
 38 26  1  0
 39 33  1  0
  5 18  1  0
 13  8  1  0
M  END

> <chembl_id>
CHEMBL435051

> <chembl_pref_name>
None


$$$$

     RDKit          2D

 52 54  0  0  0  0  0  0  0  0999 V2000
   12.5083   -0.9417    0.0000 C   0  0  0  0  0  0  0  0  0  0  0  0
   11.0917   -0.9375    0.0000 C   0  0  0  0  0  0  0  0  0  0  0  0
    9.6667   -0.9375    0.0000 C   0  0  0  0  0  0  0  0  0  0  0  0
    8.9458    1.1208    0.0000 C   0  0  0  0  0  0  0  0  0  0  0  0
   10.3833   -1.3500    0.0000 C   0  0  0  0  0  0  0  0  0  0  0  0
   13.2333   -1.3542    0.0000 C   0  0  0  0  0  0  0  0  0  0  0  0
   11.8042    0.3000    0.0000 C   0  0  0  0  0  0  0  0  0  0  0  0
   11.0917   -0.1125    0.0000 C   0  0  0  0  0  0  0  0  0  0  0  0
    9.6667    2.3583    0.0000 C   0  0  0  0  0  0  0  0  0  0  0  0
    9.6667   -0.1167    0.0000 O   0  0  0  0  0  0  0  0  0  0  0  0
    9.6667    1.5333    0.0000 C   0  0  0  0  0  0  0  0  0  0  0  0
   10.3708    2.7708    0.0000 C   0  0  0  0  0  0  0  0  0  0  0  0
   12.5167   -0.1167    0.0000 O   0  0  0  0  0  0  0  0  0  0  0  0
   10.6167   -3.8917    0.0000 C   0  0  0  0  0  0  0  0  0  0  0  0
   13.2292   -2.1792    0.0000 C   0  0  0  0  0  0  0  0  0  0  0  0
   11.8042    1.1208    0.0000 C   0  0  0  0  0  0  0  0  0  0  0  0
   10.6583   -2.4542    0.0000 C   0  0  0  0  0  0  0  0  0  0  0  0
   11.0458   -3.1875    0.0000 C   0  0  0  0  0  0  0  0  0  0  0  0
   11.7917   -1.3542    0.0000 O   0  0  0  0  0  0  0  0  0  0  0  0
    9.8208   -2.4292    0.0000 O   0  0  0  0  0  0  0  0  0  0  0  0
    8.9458    0.2958    0.0000 C   0  0  0  0  0  0  0  0  0  0  0  0
    9.7958   -3.8667    0.0000 C   0  0  0  0  0  0  0  0  0  0  0  0
   11.0833   -1.7542    0.0000 O   0  0  0  0  0  0  0  0  0  0  0  0
    9.3958   -3.1417    0.0000 C   0  0  0  0  0  0  0  0  0  0  0  0
   11.0917    2.3583    0.0000 C   0  0  0  0  0  0  0  0  0  0  0  0
   11.0917    1.5333    0.0000 C   0  0  0  0  0  0  0  0  0  0  0  0
   12.5083   -2.5917    0.0000 C   0  0  0  0  0  0  0  0  0  0  0  0
   13.9333   -2.5917    0.0000 N   0  0  0  0  0  0  0  0  0  0  0  0
    8.9542   -1.3542    0.0000 O   0  0  0  0  0  0  0  0  0  0  0  0
   11.7958   -2.1792    0.0000 C   0  0  0  0  0  0  0  0  0  0  0  0
   10.3708    3.5875    0.0000 O   0  0  0  0  0  0  0  0  0  0  0  0
    8.4333    1.7708    0.0000 O   0  0  0  0  0  0  0  0  0  0  0  0
   13.9417   -0.9417    0.0000 O   0  0  0  0  0  0  0  0  0  0  0  0
   10.3708    1.1208    0.0000 O   0  0  0  0  0  0  0  0  0  0  0  0
   10.1792   -4.5917    0.0000 O   0  0  0  0  0  0  0  0  0  0  0  0
   11.7958    1.9500    0.0000 O   0  0  0  0  0  0  0  0  0  0  0  0
    9.3542   -4.5667    0.0000 O   0  0  0  0  0  0  0  0  0  0  0  0
    8.4042    0.5000    0.0000 C   0  0  0  0  0  0  0  0  0  0  0  0
    9.6667   -1.7500    0.0000 C   0  0  0  0  0  0  0  0  0  0  0  0
   10.3708    0.3000    0.0000 C   0  0  0  0  0  0  0  0  0  0  0  0
    8.9458    2.7708    0.0000 C   0  0  0  0  0  0  0  0  0  0  0  0
   11.4417   -3.9167    0.0000 C   0  0  0  0  0  0  0  0  0  0  0  0
   12.5167    0.7083    0.0000 C   0  0  0  0  0  0  0  0  0  0  0  0
    8.2417   -0.1167    0.0000 C   0  0  0  0  0  0  0  0  0  0  0  0
    8.5708   -3.1167    0.0000 C   0  0  0  0  0  0  0  0  0  0  0  0
   11.8042    2.7708    0.0000 C   0  0  0  0  0  0  0  0  0  0  0  0
   11.3833   -2.5000    0.0000 C   0  0  0  0  0  0  0  0  0  0  0  0
   10.5708   -5.3167    0.0000 C   0  0  0  0  0  0  0  0  0  0  0  0
   12.5042    2.3708    0.0000 C   0  0  0  0  0  0  0  0  0  0  0  0
    7.5208    0.2958    0.0000 C   0  0  0  0  0  0  0  0  0  0  0  0
   10.2417   -1.7417    0.0000 H   0  0  0  0  0  0  0  0  0  0  0  0
   13.2208   -0.5250    0.0000 H   0  0  0  0  0  0  0  0  0  0  0  0
  2  8  1  0
  3  5  1  0
  4 11  1  0
  5  2  1  0
  6  1  1  0
  7 13  1  6
  8  7  1  0
  9 12  1  0
 10  3  1  0
 11  9  1  0
 12 25  1  0
 13  1  1  0
 14 18  1  0
 15  6  1  0
 16  7  1  0
 17 23  1  0
 18 17  1  0
 19  1  1  0
 20 17  1  0
 21 10  1  0
 22 24  1  0
  2 23  1  6
 24 20  1  0
 25 26  1  0
 26 16  1  0
 27 30  1  0
 15 28  1  1
 29  3  2  0
 30 19  1  0
 31 12  2  0
  4 32  1  1
  6 33  1  6
 11 34  1  1
 14 35  1  1
 16 36  1  1
 22 37  1  1
 38  4  1  0
  5 39  1  1
  8 40  1  6
  9 41  1  1
 42 14  1  0
 43 16  1  0
 21 44  1  6
 24 45  1  6
 25 46  1  6
 30 47  1  1
 48 35  1  0
 49 36  1  0
 50 44  1  0
 17 51  1  6
  1 52  1  6
 27 15  1  0
  4 21  1  0
 22 14  1  0
M  END

> <chembl_id>
CHEMBL2022718

> <chembl_pref_name>
None


$$$$

     RDKit          2D

 78 80  0  0  0  0  0  0  0  0999 V2000
   12.8635    1.3008    0.0000 O   0  0  0  0  0  0  0  0  0  0  0  0
   12.8635    2.8008    0.0000 C   0  0  0  0  0  0  0  0  0  0  0  0
   11.5644    3.5508    0.0000 C   0  0  0  0  0  0  0  0  0  0  0  0
   10.2654    2.8008    0.0000 C   0  0  0  0  0  0  0  0  0  0  0  0
   10.2654    1.3008    0.0000 C   0  0  0  0  0  0  0  0  0  0  0  0
   11.5644    0.5508    0.0000 C   0  0  0  0  0  0  0  0  0  0  0  0
   12.8644   -0.1576    0.0000 O   0  0  0  0  0  0  0  0  0  0  0  0
    9.2262    0.7008    0.0000 O   0  0  0  0  0  0  0  0  0  0  0  0
    9.2262    3.4008    0.0000 O   0  0  0  0  0  0  0  0  0  0  0  0
   11.5644    4.7508    0.0000 O   0  0  0  0  0  0  0  0  0  0  0  0
   14.1648    3.5486    0.0000 C   0  0  0  0  0  0  0  0  0  0  0  0
   15.2031    2.9471    0.0000 O   0  0  0  0  0  0  0  0  0  0  0  0
   12.9389   -1.6566    0.0000 C   0  0  0  0  0  0  0  0  0  0  0  0
   14.2739   -2.3424    0.0000 C   0  0  0  0  0  0  0  0  0  0  0  0
   11.6794   -2.4728    0.0000 C   0  0  0  0  0  0  0  0  0  0  0  0
   10.6109   -1.9267    0.0000 O   0  0  0  0  0  0  0  0  0  0  0  0
   11.7556   -3.9717    0.0000 C   0  0  0  0  0  0  0  0  0  0  0  0
   10.7486   -4.6243    0.0000 O   0  0  0  0  0  0  0  0  0  0  0  0
   15.2822   -1.6918    0.0000 O   0  0  0  0  0  0  0  0  0  0  0  0
   14.3484   -3.8413    0.0000 C   0  0  0  0  0  0  0  0  0  0  0  0
   13.3401   -4.4919    0.0000 O   0  0  0  0  0  0  0  0  0  0  0  0
   15.6834   -4.5271    0.0000 C   0  0  0  0  0  0  0  0  0  0  0  0
   16.6918   -3.8766    0.0000 O   0  0  0  0  0  0  0  0  0  0  0  0
   15.7430   -5.7257    0.0000 O   0  0  0  0  0  0  0  0  0  0  0  0
   10.6864    0.0722    0.0000 H   0  0  0  0  0  0  0  0  0  0  0  0
   -0.5918    6.5009    0.0000 C   0  0  0  0  0  0  0  0  0  0  0  0
    2.0754    1.9397    0.0000 C   0  0  0  0  0  0  0  0  0  0  0  0
    1.8265   -0.9745    0.0000 C   0  0  0  0  0  0  0  0  0  0  0  0
   -2.1016   -2.4693    0.0000 C   0  0  0  0  0  0  0  0  0  0  0  0
    2.2835    0.4542    0.0000 C   0  0  0  0  0  0  0  0  0  0  0  0
   -1.6104    7.5741    0.0000 C   0  0  0  0  0  0  0  0  0  0  0  0
   -0.0479    3.9512    0.0000 C   0  0  0  0  0  0  0  0  0  0  0  0
    1.2433    3.1877    0.0000 C   0  0  0  0  0  0  0  0  0  0  0  0
   -4.2248   -0.4578    0.0000 C   0  0  0  0  0  0  0  0  0  0  0  0
    0.7949   -2.0634    0.0000 O   0  0  0  0  0  0  0  0  0  0  0  0
   -3.3928   -1.7059    0.0000 C   0  0  0  0  0  0  0  0  0  0  0  0
   -4.4330    1.0277    0.0000 C   0  0  0  0  0  0  0  0  0  0  0  0
    0.4146    5.3875    0.0000 O   0  0  0  0  0  0  0  0  0  0  0  0
    5.3212    5.9625    0.0000 C   0  0  0  0  0  0  0  0  0  0  0  0
   -1.1494    9.0015    0.0000 C   0  0  0  0  0  0  0  0  0  0  0  0
   -1.5425    4.0788    0.0000 C   0  0  0  0  0  0  0  0  0  0  0  0
    3.7217    3.9611    0.0000 C   0  0  0  0  0  0  0  0  0  0  0  0
    3.9199    5.4274    0.0000 C   0  0  0  0  0  0  0  0  0  0  0  0
    0.8620    6.7757    0.0000 O   0  0  0  0  0  0  0  0  0  0  0  0
    4.8469    3.0003    0.0000 O   0  0  0  0  0  0  0  0  0  0  0  0
   -0.6070   -2.5969    0.0000 C   0  0  0  0  0  0  0  0  0  0  0  0
    6.4853    5.0166    0.0000 C   0  0  0  0  0  0  0  0  0  0  0  0
    3.4846    2.4791    0.0000 O   0  0  0  0  0  0  0  0  0  0  0  0
    6.2481    3.5354    0.0000 C   0  0  0  0  0  0  0  0  0  0  0  0
   -3.9760    2.4564    0.0000 C   0  0  0  0  0  0  0  0  0  0  0  0
   -2.9444    3.5453    0.0000 C   0  0  0  0  0  0  0  0  0  0  0  0
    0.3172    9.3161    0.0000 C   0  0  0  0  0  0  0  0  0  0  0  0
   -2.1534   10.1171    0.0000 N   0  0  0  0  0  0  0  0  0  0  0  0
    2.8595   -1.5853    0.0000 O   0  0  0  0  0  0  0  0  0  0  0  0
    1.3229    8.2032    0.0000 C   0  0  0  0  0  0  0  0  0  0  0  0
   -5.6286    1.1297    0.0000 O   0  0  0  0  0  0  0  0  0  0  0  0
   -1.2500   -3.3148    0.0000 O   0  0  0  0  0  0  0  0  0  0  0  0
   -2.7805    7.3081    0.0000 O   0  0  0  0  0  0  0  0  0  0  0  0
   -2.6766    4.4710    0.0000 O   0  0  0  0  0  0  0  0  0  0  0  0
   -4.2181   -2.5770    0.0000 O   0  0  0  0  0  0  0  0  0  0  0  0
    6.7168    6.4565    0.0000 O   0  0  0  0  0  0  0  0  0  0  0  0
    7.6064    5.4447    0.0000 O   0  0  0  0  0  0  0  0  0  0  0  0
   -3.2857   -2.6637    0.0000 C   0  0  0  0  0  0  0  0  0  0  0  0
    3.4792    0.3521    0.0000 C   0  0  0  0  0  0  0  0  0  0  0  0
    2.0686    4.0589    0.0000 C   0  0  0  0  0  0  0  0  0  0  0  0
   -5.3464   -0.8846    0.0000 C   0  0  0  0  0  0  0  0  0  0  0  0
    4.3717    6.6963    0.0000 C   0  0  0  0  0  0  0  0  0  0  0  0
   -0.5599    4.7677    0.0000 C   0  0  0  0  0  0  0  0  0  0  0  0
   -0.3946   -4.0909    0.0000 C   0  0  0  0  0  0  0  0  0  0  0  0
    7.1794    2.7787    0.0000 C   0  0  0  0  0  0  0  0  0  0  0  0
   -5.0090    3.0671    0.0000 C   0  0  0  0  0  0  0  0  0  0  0  0
   -1.7831   11.2585    0.0000 C   0  0  0  0  0  0  0  0  0  0  0  0
   -3.3272    9.8675    0.0000 C   0  0  0  0  0  0  0  0  0  0  0  0
    2.4963    8.4548    0.0000 C   0  0  0  0  0  0  0  0  0  0  0  0
    6.9652    7.6305    0.0000 C   0  0  0  0  0  0  0  0  0  0  0  0
    0.7184   -4.5394    0.0000 C   0  0  0  0  0  0  0  0  0  0  0  0
    2.9457    4.5919    0.0000 H   0  0  0  0  0  0  0  0  0  0  0  0
   -1.5696    6.2913    0.0000 H   0  0  0  0  0  0  0  0  0  0  0  0
  1  2  1  0
  1  6  1  0
  2  3  1  0
  3  4  1  0
  4  5  1  0
  5  6  1  0
  6  7  1  0
  5  8  1  6
  4  9  1  6
  3 10  1  6
  2 11  1  1
 11 12  1  0
 13  7  1  1
 13 14  1  0
 13 15  1  0
 15 16  1  1
 15 17  1  0
 17 18  1  0
 14 19  1  6
 14 20  1  0
 20 21  1  6
 20 22  1  0
 22 23  1  0
 22 24  2  0
  6 25  1  6
 27 33  1  0
 28 30  1  0
 29 36  1  0
 30 27  1  0
 31 26  1  0
 32 38  1  6
 33 32  1  0
 34 37  1  0
 35 28  1  0
 36 34  1  0
 37 50  1  0
 38 26  1  0
 39 43  1  0
 40 31  1  0
 41 32  1  0
 42 48  1  0
 43 42  1  0
 44 26  1  0
 45 42  1  0
 46 35  1  0
 47 49  1  0
 27 48  1  6
 49 45  1  0
 50 51  1  0
 51 41  1  0
 52 55  1  0
 40 53  1  1
 54 28  2  0
 55 44  1  0
 56 37  2  0
 29 57  1  1
 31 58  1  6
 41 59  1  1
 36 60  1  6
 39 61  1  1
 47 62  1  1
 63 29  1  0
 30 64  1  1
 33 65  1  1
 34 66  1  1
 67 39  1  0
 68 41  1  0
 46 69  1  6
 49 70  1  6
 50 71  1  6
 72 53  1  0
 73 53  1  0
 55 74  1  1
 75 61  1  0
 76 69  1  0
 42 77  1  6
 26 78  1  6
 52 40  1  0
 29 46  1  0
 47 39  1  0
M  END

> <chembl_id>
CHEMBL3786307

> <chembl_pref_name>
None


$$$$

     RDKit          2D

 66 69  0  0  0  0  0  0  0  0999 V2000
    4.2371   -4.0339    0.0000 C   0  0  0  0  0  0  0  0  0  0  0  0
    3.5257   -3.6161    0.0000 C   0  0  0  0  0  0  0  0  0  0  0  0
    3.5341   -2.7954    0.0000 O   0  0  0  0  0  0  0  0  0  0  0  0
    4.2467   -2.3881    0.0000 C   0  0  0  0  0  0  0  0  0  0  0  0
    4.9582   -2.8059    0.0000 C   0  0  0  0  0  0  0  0  0  0  0  0
    4.9569   -3.6309    0.0000 C   0  0  0  0  0  0  0  0  0  0  0  0
    5.6684   -4.0486    0.0000 O   0  0  0  0  0  0  0  0  0  0  0  0
    4.2286   -4.8588    0.0000 O   0  0  0  0  0  0  0  0  0  0  0  0
    5.6745   -2.3965    0.0000 O   0  0  0  0  0  0  0  0  0  0  0  0
    4.2516   -1.5631    0.0000 C   0  0  0  0  0  0  0  0  0  0  0  0
    3.5396   -1.1465    0.0000 O   0  0  0  0  0  0  0  0  0  0  0  0
    2.8076   -4.0223    0.0000 O   0  0  0  0  0  0  0  0  0  0  0  0
   -0.7542    0.5333    0.0000 C   0  0  0  0  0  0  0  0  0  0  0  0
   -1.4704    0.9500    0.0000 C   0  0  0  0  0  0  0  0  0  0  0  0
   -2.1907    0.5333    0.0000 C   0  0  0  0  0  0  0  0  0  0  0  0
   -1.4704    1.7791    0.0000 C   0  0  0  0  0  0  0  0  0  0  0  0
   -2.1907   -0.2959    0.0000 C   0  0  0  0  0  0  0  0  0  0  0  0
   -2.9069    0.9500    0.0000 O   0  0  0  0  0  0  0  0  0  0  0  0
   -0.7542   -0.2959    0.0000 C   0  0  0  0  0  0  0  0  0  0  0  0
   -0.0338   -0.7084    0.0000 C   0  0  0  0  0  0  0  0  0  0  0  0
   -0.7459   -1.1209    0.0000 O   0  0  0  0  0  0  0  0  0  0  0  0
   -1.4641   -1.5370    0.0000 C   0  0  0  0  0  0  0  0  0  0  0  0
    0.6861   -0.2942    0.0000 O   0  0  0  0  0  0  0  0  0  0  0  0
   -0.0338   -1.5375    0.0000 C   0  0  0  0  0  0  0  0  0  0  0  0
   -0.7542   -1.9542    0.0000 C   0  0  0  0  0  0  0  0  0  0  0  0
   -0.7542   -2.7834    0.0000 C   0  0  0  0  0  0  0  0  0  0  0  0
   -1.4704   -3.2000    0.0000 C   0  0  0  0  0  0  0  0  0  0  0  0
   -1.4704   -4.0292    0.0000 O   0  0  0  0  0  0  0  0  0  0  0  0
   -2.1907   -1.9542    0.0000 C   0  0  0  0  0  0  0  0  0  0  0  0
   -2.1907   -2.7834    0.0000 O   0  0  0  0  0  0  0  0  0  0  0  0
   -2.9000   -2.3625    0.0000 C   0  0  0  0  0  0  0  0  0  0  0  0
   -2.9002   -3.1917    0.0000 C   0  0  0  0  0  0  0  0  0  0  0  0
   -2.9111   -0.7056    0.0000 C   0  0  0  0  0  0  0  0  0  0  0  0
   -2.9069   -1.5375    0.0000 C   0  0  0  0  0  0  0  0  0  0  0  0
   -3.6965   -1.7991    0.0000 O   0  0  0  0  0  0  0  0  0  0  0  0
   -3.7070   -0.4526    0.0000 O   0  0  0  0  0  0  0  0  0  0  0  0
   -1.4776   -0.7107    0.0000 C   0  0  0  0  0  0  0  0  0  0  0  0
   -0.0417   -2.3667    0.0000 O   0  0  0  0  0  0  0  0  0  0  0  0
    0.6708   -2.7792    0.0000 C   0  0  0  0  0  0  0  0  0  0  0  0
    0.6678   -3.6034    0.0000 C   0  0  0  0  0  0  0  0  0  0  0  0
    1.3762   -4.0158    0.0000 C   0  0  0  0  0  0  0  0  0  0  0  0
    2.0921   -3.6086    0.0000 C   0  0  0  0  0  0  0  0  0  0  0  0
    2.0951   -2.7843    0.0000 C   0  0  0  0  0  0  0  0  0  0  0  0
    1.3822   -2.3674    0.0000 O   0  0  0  0  0  0  0  0  0  0  0  0
    2.8115   -2.3751    0.0000 C   0  0  0  0  0  0  0  0  0  0  0  0
    0.9583   -4.7250    0.0000 C   0  0  0  0  0  0  0  0  0  0  0  0
    1.7833   -4.7250    0.0000 O   0  0  0  0  0  0  0  0  0  0  0  0
    2.6083   -4.7271    0.0000 C   0  0  0  0  0  0  0  0  0  0  0  0
    1.0851    0.4252    0.0000 C   0  0  0  0  0  0  0  0  0  0  0  0
    1.9085    0.4374    0.0000 O   0  0  0  0  0  0  0  0  0  0  0  0
    2.3075    1.1526    0.0000 C   0  0  0  0  0  0  0  0  0  0  0  0
    1.8875    1.8604    0.0000 C   0  0  0  0  0  0  0  0  0  0  0  0
    1.0640    1.8481    0.0000 C   0  0  0  0  0  0  0  0  0  0  0  0
    0.6605    1.1283    0.0000 C   0  0  0  0  0  0  0  0  0  0  0  0
    3.1325    1.1638    0.0000 C   0  0  0  0  0  0  0  0  0  0  0  0
    0.6416    2.5569    0.0000 N   0  0  0  0  0  0  0  0  0  0  0  0
    1.0442    3.2770    0.0000 C   0  0  0  0  0  0  0  0  0  0  0  0
   -0.1833    2.5455    0.0000 C   0  0  0  0  0  0  0  0  0  0  0  0
   -0.1643    1.1149    0.0000 O   0  0  0  0  0  0  0  0  0  0  0  0
   -0.0390   -3.1947    0.0000 C   0  0  0  0  0  0  0  0  0  0  0  0
    0.7875   -1.5375    0.0000 C   0  0  0  0  0  0  0  0  0  0  0  0
   -3.5770   -1.0562    0.0000 C   0  0  0  0  0  0  0  0  0  0  0  0
   -1.4739    0.1074    0.0000 C   0  0  0  0  0  0  0  0  0  0  0  0
    1.5009   -0.2874    0.0000 H   0  0  0  0  0  0  0  0  0  0  0  0
    0.6667   -1.9542    0.0000 H   0  0  0  0  0  0  0  0  0  0  0  0
    3.5208   -4.4375    0.0000 H   0  0  0  0  0  0  0  0  0  0  0  0
 15 17  1  0
  1  6  1  0
 15 18  2  0
 34 35  1  1
 33 36  1  6
 17 33  1  0
 17 37  1  6
  5  9  1  1
 25 38  1  1
 13 19  1  0
 38 39  1  0
 39 40  1  0
  2  3  1  0
 19 20  1  0
  4 10  1  6
 19 21  1  6
  3  4  1  0
 39 44  1  0
 40 41  1  0
 41 42  1  0
 42 43  1  0
 43 44  1  0
 21 22  1  0
 43 45  1  1
 10 11  1  0
 41 46  1  1
 20 23  1  6
 41 47  1  0
  4  5  1  0
 47 48  1  0
 42 12  1  6
 20 24  1  0
 23 49  1  0
 49 50  1  0
  2 12  1  0
 24 25  1  0
  5  6  1  0
 25 26  1  0
 49 54  1  0
 50 51  1  0
 51 52  1  0
 52 53  1  0
 53 54  1  0
 26 27  1  0
 51 55  1  1
 13 14  1  0
 53 56  1  1
 27 28  2  0
 56 57  1  0
 27 30  1  0
 56 58  1  0
  6  7  1  6
 54 59  1  6
 34 29  1  0
 14 15  1  0
 29 30  1  0
 26 60  1  1
  1  2  1  0
 24 61  1  1
 29 31  1  1
 14 16  1  6
 34 62  1  0
 31 32  1  0
 19 63  1  0
 49 64  1  6
 33 34  1  0
 39 65  1  1
  1  8  1  1
  2 66  1  1
M  END

> <chembl_id>
CHEMBL1224598

> <chembl_pref_name>
None


$$$$

     RDKit          2D

 55 58  0  0  0  0  0  0  0  0999 V2000
    5.5208   -0.3625    0.0000 C   0  0  0  0  0  0  0  0  0  0  0  0
    5.5167   -1.1875    0.0000 C   0  0  0  0  0  0  0  0  0  0  0  0
    6.2207    0.0464    0.0000 C   0  0  0  0  0  0  0  0  0  0  0  0
    6.9164   -0.3697    0.0000 C   0  0  0  0  0  0  0  0  0  0  0  0
    6.9123   -1.1947    0.0000 C   0  0  0  0  0  0  0  0  0  0  0  0
    4.8210   -1.5964    0.0000 C   0  0  0  0  0  0  0  0  0  0  0  0
    7.6038   -1.6108    0.0000 C   0  0  0  0  0  0  0  0  0  0  0  0
    4.8167   -2.4208    0.0000 C   0  0  0  0  0  0  0  0  0  0  0  0
    7.5958   -2.4333    0.0000 C   0  0  0  0  0  0  0  0  0  0  0  0
    5.5081   -2.8370    0.0000 O   0  0  0  0  0  0  0  0  0  0  0  0
    6.8982   -2.8389    0.0000 C   0  0  0  0  0  0  0  0  0  0  0  0
    5.5039   -3.6620    0.0000 C   0  0  0  0  0  0  0  0  0  0  0  0
    6.8902   -3.6639    0.0000 C   0  0  0  0  0  0  0  0  0  0  0  0
    6.1885   -4.0694    0.0000 C   0  0  0  0  0  0  0  0  0  0  0  0
    6.2250    0.8714    0.0000 N   0  0  0  0  0  0  0  0  0  0  0  0
    6.9415    1.2802    0.0000 O   0  0  0  0  0  0  0  0  0  0  0  0
    7.6351    0.0354    0.0000 C   0  0  0  0  0  0  0  0  0  0  0  0
    8.0083   -0.8917    0.0000 O   0  0  0  0  0  0  0  0  0  0  0  0
    8.3958   -1.8208    0.0000 C   0  0  0  0  0  0  0  0  0  0  0  0
    8.8333   -0.8824    0.0000 C   0  0  0  0  0  0  0  0  0  0  0  0
    9.2378   -0.1634    0.0000 C   0  0  0  0  0  0  0  0  0  0  0  0
   10.0627   -0.1542    0.0000 C   0  0  0  0  0  0  0  0  0  0  0  0
   10.4672    0.5649    0.0000 C   0  0  0  0  0  0  0  0  0  0  0  0
   11.2915    0.5708    0.0000 C   0  0  0  0  0  0  0  0  0  0  0  0
   10.4462    1.9879    0.0000 N   0  0  0  0  0  0  0  0  0  0  0  0
   10.0455    1.2691    0.0000 C   0  0  0  0  0  0  0  0  0  0  0  0
   11.2753    1.9998    0.0000 C   0  0  0  0  0  0  0  0  0  0  0  0
   11.6956    1.2844    0.0000 C   0  0  0  0  0  0  0  0  0  0  0  0
   12.5234    1.2915    0.0000 C   0  0  0  0  0  0  0  0  0  0  0  0
   12.9320    2.0134    0.0000 C   0  0  0  0  0  0  0  0  0  0  0  0
   12.5067    2.7296    0.0000 C   0  0  0  0  0  0  0  0  0  0  0  0
   11.6803    2.7189    0.0000 C   0  0  0  0  0  0  0  0  0  0  0  0
    4.8063    0.0500    0.0000 C   0  0  0  0  0  0  0  0  0  0  0  0
    6.2317   -1.5990    0.0000 O   0  0  0  0  0  0  0  0  0  0  0  0
    4.6042   -0.7958    0.0000 O   0  0  0  0  0  0  0  0  0  0  0  0
    4.0208   -1.8083    0.0000 C   0  0  0  0  0  0  0  0  0  0  0  0
    4.0974   -2.8249    0.0000 C   0  0  0  0  0  0  0  0  0  0  0  0
    4.0878   -3.6499    0.0000 C   0  0  0  0  0  0  0  0  0  0  0  0
    4.7856   -4.0680    0.0000 O   0  0  0  0  0  0  0  0  0  0  0  0
    6.1832   -4.8944    0.0000 C   0  0  0  0  0  0  0  0  0  0  0  0
    7.6028   -4.0797    0.0000 O   0  0  0  0  0  0  0  0  0  0  0  0
    6.1851   -2.4240    0.0000 C   0  0  0  0  0  0  0  0  0  0  0  0
    8.0174   -3.1425    0.0000 O   0  0  0  0  0  0  0  0  0  0  0  0
    8.8424   -3.1319    0.0000 C   0  0  0  0  0  0  0  0  0  0  0  0
    9.2587   -3.8445    0.0000 O   0  0  0  0  0  0  0  0  0  0  0  0
   10.0801   -3.8360    0.0000 C   0  0  0  0  0  0  0  0  0  0  0  0
   10.4873   -3.1181    0.0000 C   0  0  0  0  0  0  0  0  0  0  0  0
   10.0669   -2.4071    0.0000 C   0  0  0  0  0  0  0  0  0  0  0  0
    9.2393   -2.4140    0.0000 C   0  0  0  0  0  0  0  0  0  0  0  0
    8.4346   -3.8485    0.0000 H   0  0  0  0  0  0  0  0  0  0  0  0
   10.4990   -4.5467    0.0000 C   0  0  0  0  0  0  0  0  0  0  0  0
   11.3122   -3.1107    0.0000 N   0  0  0  0  0  0  0  0  0  0  0  0
   11.7312   -3.8214    0.0000 C   0  0  0  0  0  0  0  0  0  0  0  0
   11.7183   -2.3925    0.0000 C   0  0  0  0  0  0  0  0  0  0  0  0
   10.4727   -1.6888    0.0000 O   0  0  0  0  0  0  0  0  0  0  0  0
 12 14  1  0
  5  7  1  0
 27 28  1  0
 13 14  1  0
 28 29  2  0
  3  4  1  0
 29 30  1  0
  3 15  2  0
 30 31  2  0
  6  8  1  0
 31 32  1  0
 32 27  2  0
 15 16  1  0
  1 33  1  1
  2 34  1  1
  4 17  1  6
  6 35  1  1
  7  9  1  0
  6 36  1  0
  7 18  1  1
  8 37  1  6
  4  5  1  0
 37 38  1  0
  7 19  1  0
 12 39  2  0
  8 10  1  0
 14 40  1  1
 18 20  1  0
 13 41  2  0
  1  3  1  0
 11 42  1  6
 20 21  1  0
  9 43  1  6
  9 11  1  0
 43 44  1  0
 44 45  1  0
 21 22  2  0
  2  6  1  0
 22 23  1  0
 10 12  1  0
 23 24  2  0
 44 49  1  0
 45 46  1  0
 46 47  1  0
 47 48  1  0
 48 49  1  0
 24 28  1  0
 44 50  1  6
  1  2  1  0
 46 51  1  1
 27 25  1  0
 47 52  1  1
 11 13  1  0
 52 53  1  0
 25 26  2  0
 52 54  1  0
 26 23  1  0
 48 55  1  6
M  END

> <chembl_id>
CHEMBL1288428

> <chembl_pref_name>
None


$$$$

     RDKit          2D

 57 60  0  0  0  0  0  0  0  0999 V2000
    0.2000  -24.5000    0.0000 C   0  0  0  0  0  0  0  0  0  0  0  0
   -1.2167  -24.4958    0.0000 C   0  0  0  0  0  0  0  0  0  0  0  0
   -2.6417  -24.4958    0.0000 C   0  0  0  0  0  0  0  0  0  0  0  0
   -3.3625  -22.4375    0.0000 C   0  0  0  0  0  0  0  0  0  0  0  0
   -1.9250  -24.9083    0.0000 C   0  0  0  0  0  0  0  0  0  0  0  0
   -0.5042  -23.2583    0.0000 C   0  0  0  0  0  0  0  0  0  0  0  0
   -1.2167  -23.6708    0.0000 C   0  0  0  0  0  0  0  0  0  0  0  0
   -2.6417  -21.2000    0.0000 C   0  0  0  0  0  0  0  0  0  0  0  0
   -2.6417  -23.6750    0.0000 O   0  0  0  0  0  0  0  0  0  0  0  0
   -2.6417  -22.0250    0.0000 C   0  0  0  0  0  0  0  0  0  0  0  0
   -1.9375  -20.7875    0.0000 C   0  0  0  0  0  0  0  0  0  0  0  0
    0.2083  -23.6750    0.0000 O   0  0  0  0  0  0  0  0  0  0  0  0
   -1.6917  -27.4500    0.0000 C   0  0  0  0  0  0  0  0  0  0  0  0
   -0.5042  -22.4375    0.0000 C   0  0  0  0  0  0  0  0  0  0  0  0
   -1.6500  -26.0125    0.0000 C   0  0  0  0  0  0  0  0  0  0  0  0
   -1.2625  -26.7458    0.0000 C   0  0  0  0  0  0  0  0  0  0  0  0
   -0.5167  -24.9125    0.0000 O   0  0  0  0  0  0  0  0  0  0  0  0
   -2.4875  -25.9875    0.0000 O   0  0  0  0  0  0  0  0  0  0  0  0
   -3.3625  -23.2625    0.0000 C   0  0  0  0  0  0  0  0  0  0  0  0
   -2.5125  -27.4250    0.0000 C   0  0  0  0  0  0  0  0  0  0  0  0
   -1.2250  -25.3125    0.0000 O   0  0  0  0  0  0  0  0  0  0  0  0
   -2.9125  -26.7000    0.0000 C   0  0  0  0  0  0  0  0  0  0  0  0
   -1.2167  -21.2000    0.0000 C   0  0  0  0  0  0  0  0  0  0  0  0
   -1.2167  -22.0250    0.0000 C   0  0  0  0  0  0  0  0  0  0  0  0
    0.2000  -26.1500    0.0000 C   0  0  0  0  0  0  0  0  0  0  0  0
   -3.3542  -24.9125    0.0000 O   0  0  0  0  0  0  0  0  0  0  0  0
   -0.5125  -25.7375    0.0000 C   0  0  0  0  0  0  0  0  0  0  0  0
   -1.9375  -19.9708    0.0000 O   0  0  0  0  0  0  0  0  0  0  0  0
   -3.8750  -21.7875    0.0000 O   0  0  0  0  0  0  0  0  0  0  0  0
   -1.9375  -22.4375    0.0000 O   0  0  0  0  0  0  0  0  0  0  0  0
   -2.1292  -28.1500    0.0000 O   0  0  0  0  0  0  0  0  0  0  0  0
   -0.5125  -21.6083    0.0000 O   0  0  0  0  0  0  0  0  0  0  0  0
   -2.9542  -28.1250    0.0000 O   0  0  0  0  0  0  0  0  0  0  0  0
   -3.9042  -23.0583    0.0000 C   0  0  0  0  0  0  0  0  0  0  0  0
   -2.6417  -25.3083    0.0000 C   0  0  0  0  0  0  0  0  0  0  0  0
   -1.9375  -23.2583    0.0000 C   0  0  0  0  0  0  0  0  0  0  0  0
   -3.3625  -20.7875    0.0000 C   0  0  0  0  0  0  0  0  0  0  0  0
   -0.8667  -27.4750    0.0000 C   0  0  0  0  0  0  0  0  0  0  0  0
    0.2083  -22.8500    0.0000 C   0  0  0  0  0  0  0  0  0  0  0  0
   -4.0667  -23.6750    0.0000 C   0  0  0  0  0  0  0  0  0  0  0  0
   -3.7375  -26.6750    0.0000 C   0  0  0  0  0  0  0  0  0  0  0  0
   -0.5042  -20.7875    0.0000 C   0  0  0  0  0  0  0  0  0  0  0  0
   -0.8792  -26.0583    0.0000 C   0  0  0  0  0  0  0  0  0  0  0  0
   -1.7375  -28.8750    0.0000 C   0  0  0  0  0  0  0  0  0  0  0  0
    0.1958  -21.1875    0.0000 C   0  0  0  0  0  0  0  0  0  0  0  0
   -4.7875  -23.2625    0.0000 C   0  0  0  0  0  0  0  0  0  0  0  0
   -2.0667  -25.3000    0.0000 H   0  0  0  0  0  0  0  0  0  0  0  0
    0.9250  -24.9125    0.0000 C   0  0  0  0  0  0  0  0  0  0  0  0
    0.9254  -25.7375    0.0000 C   0  0  0  0  0  0  0  0  0  0  0  0
    1.7101  -25.9921    0.0000 N   0  0  0  0  0  0  0  0  0  0  0  0
    2.1947  -25.3244    0.0000 C   0  0  0  0  0  0  0  0  0  0  0  0
    1.7095  -24.6573    0.0000 O   0  0  0  0  0  0  0  0  0  0  0  0
   -0.5083  -24.0833    0.0000 H   0  0  0  0  0  0  0  0  0  0  0  0
    0.9208  -24.0875    0.0000 H   0  0  0  0  0  0  0  0  0  0  0  0
    0.9208  -26.5583    0.0000 H   0  0  0  0  0  0  0  0  0  0  0  0
    3.0197  -25.3240    0.0000 O   0  0  0  0  0  0  0  0  0  0  0  0
    1.9654  -26.7766    0.0000 C   0  0  0  0  0  0  0  0  0  0  0  0
 10  8  1  0
 11 23  1  0
  1 12  1  1
 13 16  1  0
 14  6  1  0
 15 21  1  0
 16 15  1  0
 17  1  1  0
 18 15  1  0
 19  9  1  0
 20 22  1  0
  2 21  1  6
 22 18  1  0
 23 24  1  0
 24 14  1  0
 25 27  1  0
 26  3  2  0
 27 17  1  0
 28 11  2  0
  4 29  1  1
 10 30  1  1
 13 31  1  1
 14 32  1  1
 20 33  1  1
 34  4  1  0
  5 35  1  1
  7 36  1  6
  8 37  1  1
 38 13  1  0
 39 14  1  0
 19 40  1  6
 22 41  1  6
 23 42  1  6
 27 43  1  1
 44 31  1  0
 45 32  1  0
 46 40  1  0
 15 47  1  6
 25 49  1  0
  4 19  1  0
 20 13  1  0
 48 49  1  0
  2  7  1  0
  3  5  1  0
  4 10  1  0
  5  2  1  0
 49 50  1  0
 50 51  1  0
 51 52  1  0
 52 48  1  0
 48  1  1  0
  6 53  1  1
  6 12  1  0
 48 54  1  1
  7  6  1  0
 49 55  1  6
  8 11  1  0
 51 56  2  0
  9  3  1  0
 50 57  1  0
M  END

> <chembl_id>
CHEMBL2022724

> <chembl_pref_name>
None


$$$$

     RDKit          2D

 50 52  0  0  0  0  0  0  0  0999 V2000
   27.8505  -16.3480    0.0000 C   0  0  0  0  0  0  0  0  0  0  0  0
   28.6430  -16.5626    0.0000 C   0  0  0  0  0  0  0  0  0  0  0  0
   28.4326  -15.7690    0.0000 O   0  0  0  0  0  0  0  0  0  0  0  0
   32.9715  -18.0458    0.0000 C   0  0  0  0  0  0  0  0  0  0  0  0
   30.7809  -18.6055    0.0000 C   0  0  0  0  0  0  0  0  0  0  0  0
   29.3487  -18.6055    0.0000 C   0  0  0  0  0  0  0  0  0  0  0  0
   30.0669  -19.0183    0.0000 C   0  0  0  0  0  0  0  0  0  0  0  0
   33.5885  -17.5029    0.0000 C   0  0  0  0  0  0  0  0  0  0  0  0
   31.4866  -17.3839    0.0000 C   0  0  0  0  0  0  0  0  0  0  0  0
   30.7685  -17.7842    0.0000 C   0  0  0  0  0  0  0  0  0  0  0  0
   29.3487  -15.3285    0.0000 C   0  0  0  0  0  0  0  0  0  0  0  0
   29.3487  -17.7842    0.0000 O   0  0  0  0  0  0  0  0  0  0  0  0
   29.3487  -16.1498    0.0000 C   0  0  0  0  0  0  0  0  0  0  0  0
   30.0586  -14.9241    0.0000 C   0  0  0  0  0  0  0  0  0  0  0  0
   32.1965  -17.7842    0.0000 O   0  0  0  0  0  0  0  0  0  0  0  0
   34.3664  -17.7617    0.0000 C   0  0  0  0  0  0  0  0  0  0  0  0
   31.4866  -16.5626    0.0000 C   0  0  0  0  0  0  0  0  0  0  0  0
   33.1321  -18.8592    0.0000 O   0  0  0  0  0  0  0  0  0  0  0  0
   28.6430  -17.3839    0.0000 C   0  0  0  0  0  0  0  0  0  0  0  0
   31.4784  -19.0183    0.0000 O   0  0  0  0  0  0  0  0  0  0  0  0
   30.7685  -15.3285    0.0000 C   0  0  0  0  0  0  0  0  0  0  0  0
   30.7685  -16.1498    0.0000 C   0  0  0  0  0  0  0  0  0  0  0  0
   34.5272  -18.5692    0.0000 C   0  0  0  0  0  0  0  0  0  0  0  0
   34.9862  -17.2218    0.0000 N   0  0  0  0  0  0  0  0  0  0  0  0
   28.6512  -19.0183    0.0000 O   0  0  0  0  0  0  0  0  0  0  0  0
   33.9131  -19.1151    0.0000 C   0  0  0  0  0  0  0  0  0  0  0  0
   30.0586  -14.1027    0.0000 O   0  0  0  0  0  0  0  0  0  0  0  0
   33.4276  -16.6954    0.0000 O   0  0  0  0  0  0  0  0  0  0  0  0
   31.7012  -15.8816    0.0000 O   0  0  0  0  0  0  0  0  0  0  0  0
   30.0710  -19.8396    0.0000 C   0  0  0  0  0  0  0  0  0  0  0  0
   30.0586  -17.3756    0.0000 C   0  0  0  0  0  0  0  0  0  0  0  0
   28.6430  -14.9241    0.0000 C   0  0  0  0  0  0  0  0  0  0  0  0
   32.1965  -16.9712    0.0000 C   0  0  0  0  0  0  0  0  0  0  0  0
   27.9331  -17.7925    0.0000 C   0  0  0  0  0  0  0  0  0  0  0  0
   31.4866  -14.9241    0.0000 C   0  0  0  0  0  0  0  0  0  0  0  0
   34.8224  -16.4172    0.0000 C   0  0  0  0  0  0  0  0  0  0  0  0
   35.7640  -17.4864    0.0000 C   0  0  0  0  0  0  0  0  0  0  0  0
   34.0710  -19.9196    0.0000 C   0  0  0  0  0  0  0  0  0  0  0  0
   27.9331  -18.6055    0.0000 C   0  0  0  0  0  0  0  0  0  0  0  0
   32.3687  -18.6037    0.0000 H   0  0  0  0  0  0  0  0  0  0  0  0
   32.3162  -15.5225    0.0000 C   0  0  0  0  0  0  0  0  0  0  0  0
   28.6404  -14.1069    0.0000 C   0  0  0  0  0  0  0  0  0  0  0  0
   29.3498  -13.6992    0.0000 C   0  0  0  0  0  0  0  0  0  0  0  0
   29.3476  -12.8827    0.0000 C   0  0  0  0  0  0  0  0  0  0  0  0
   28.6380  -12.4756    0.0000 C   0  0  0  0  0  0  0  0  0  0  0  0
   27.9293  -12.8908    0.0000 C   0  0  0  0  0  0  0  0  0  0  0  0
   27.9350  -13.7059    0.0000 C   0  0  0  0  0  0  0  0  0  0  0  0
   33.8309  -15.9848    0.0000 C   0  0  0  0  0  0  0  0  0  0  0  0
   34.6481  -15.9786    0.0000 O   0  0  0  0  0  0  0  0  0  0  0  0
   33.4170  -15.2801    0.0000 C   0  0  0  0  0  0  0  0  0  0  0  0
  2  1  1  0
  2  3  1  1
  5 10  1  0
  6  7  1  0
  2 13  1  0
  7  5  1  0
  8  4  1  0
  9 15  1  6
 10  9  1  0
 11 14  1  0
 12  6  1  0
 13 11  2  0
 14 21  1  0
 15  4  1  0
 16  8  1  0
 17  9  1  0
 18  4  1  0
 19 12  1  0
  5 20  1  6
 21 22  1  0
 22 17  1  0
 23 26  1  0
 16 24  1  1
 25  6  2  0
 26 18  1  0
 27 14  2  0
  8 28  1  6
 17 29  1  1
  7 30  1  1
 10 31  1  6
 11 32  1  0
 33 17  1  0
 19 34  1  6
 21 35  1  6
 36 24  1  0
 37 24  1  0
 26 38  1  1
 39 34  1  0
  4 40  1  6
 23 16  1  0
  2 19  1  0
 29 41  1  0
 32 42  1  0
 42 43  2  0
 43 44  1  0
 44 45  2  0
 45 46  1  0
 46 47  2  0
 47 42  1  0
 28 48  1  0
 48 49  2  0
 48 50  1  0
M  END

> <chembl_id>
CHEMBL4098341

> <chembl_pref_name>
None


$$$$

     RDKit          2D

 78 82  0  0  1  0  0  0  0  0999 V2000
    4.3000  -10.3417    0.0000 C   0  0  0  0  0  0  0  0  0  0  0  0
    1.9417  -11.7792    0.0000 C   0  0  0  0  0  0  0  0  0  0  0  0
    1.2292  -13.0125    0.0000 C   0  0  0  0  0  0  0  0  0  0  0  0
   -0.1833  -11.3750    0.0000 C   0  0  0  0  0  0  0  0  0  0  0  0
    1.9417  -12.6042    0.0000 C   0  0  0  0  0  0  0  0  0  0  0  0
   13.6000   -6.6250    0.0000 N   0  0  0  0  0  0  0  0  0  0  0  0
    2.6750  -10.5667    0.0000 C   0  0  0  0  0  0  0  0  0  0  0  0
    2.6667  -11.3917    0.0000 C   0  0  0  0  0  0  0  0  0  0  0  0
    0.5417  -10.1500    0.0000 C   0  0  0  0  0  0  0  0  0  0  0  0
    4.3000   -9.5167    0.0000 C   0  0  0  0  0  0  0  0  0  0  0  0
    0.5292  -12.6000    0.0000 O   0  0  0  0  0  0  0  0  0  0  0  0
   -0.1750  -10.5542    0.0000 C   0  0  0  0  0  0  0  0  0  0  0  0
    5.0167   -9.1125    0.0000 C   0  0  0  0  0  0  0  0  0  0  0  0
    0.5292   -9.3250    0.0000 C   0  0  0  0  0  0  0  0  0  0  0  0
    3.4667  -10.3417    0.0000 O   0  0  0  0  0  0  0  0  0  0  0  0
    4.7125  -12.9125    0.0000 C   0  0  0  0  0  0  0  0  0  0  0  0
    1.9625  -10.1542    0.0000 C   0  0  0  0  0  0  0  0  0  0  0  0
    3.4792  -12.1917    0.0000 C   0  0  0  0  0  0  0  0  0  0  0  0
    5.7292   -7.8667    0.0000 C   0  0  0  0  0  0  0  0  0  0  0  0
    5.0167   -8.2792    0.0000 N   0  0  0  0  0  0  0  0  0  0  0  0
    3.8917  -12.9042    0.0000 C   0  0  0  0  0  0  0  0  0  0  0  0
    5.0167  -10.7625    0.0000 O   0  0  0  0  0  0  0  0  0  0  0  0
    3.8917  -11.4792    0.0000 O   0  0  0  0  0  0  0  0  0  0  0  0
    0.5292  -11.7875    0.0000 C   0  0  0  0  0  0  0  0  0  0  0  0
    5.1292  -12.2000    0.0000 C   0  0  0  0  0  0  0  0  0  0  0  0
   12.8792   -7.0292    0.0000 C   0  0  0  0  0  0  0  0  0  0  0  0
    2.6542  -12.1917    0.0000 O   0  0  0  0  0  0  0  0  0  0  0  0
    4.7167  -11.4792    0.0000 C   0  0  0  0  0  0  0  0  0  0  0  0
    6.4500   -8.2750    0.0000 C   0  0  0  0  0  0  0  0  0  0  0  0
   12.1667   -6.6167    0.0000 C   0  0  0  0  0  0  0  0  0  0  0  0
    1.2417   -8.9042    0.0000 C   0  0  0  0  0  0  0  0  0  0  0  0
    1.9625   -9.3250    0.0000 C   0  0  0  0  0  0  0  0  0  0  0  0
    7.1667   -7.8542    0.0000 N   0  0  0  0  0  0  0  0  0  0  0  0
    5.7292   -9.5250    0.0000 C   0  0  0  0  0  0  0  0  0  0  0  0
   11.4542   -7.0292    0.0000 C   0  0  0  0  0  0  0  0  0  0  0  0
    7.8875   -8.2750    0.0000 C   0  0  0  0  0  0  0  0  0  0  0  0
   13.6000   -5.8000    0.0000 O   0  0  0  0  0  0  0  0  0  0  0  0
   14.3125   -7.0375    0.0000 O   0  0  0  0  0  0  0  0  0  0  0  0
    1.2292  -13.8417    0.0000 O   0  0  0  0  0  0  0  0  0  0  0  0
    5.7292  -10.3500    0.0000 C   0  0  0  0  0  0  0  0  0  0  0  0
   -0.1958   -8.9167    0.0000 O   0  0  0  0  0  0  0  0  0  0  0  0
   11.4542   -7.8542    0.0000 C   0  0  0  0  0  0  0  0  0  0  0  0
    5.7292   -7.0417    0.0000 O   0  0  0  0  0  0  0  0  0  0  0  0
    6.4542   -9.1000    0.0000 C   0  0  0  0  0  0  0  0  0  0  0  0
   12.8792   -7.8625    0.0000 C   0  0  0  0  0  0  0  0  0  0  0  0
    7.8875   -9.1000    0.0000 O   0  0  0  0  0  0  0  0  0  0  0  0
   -0.9625  -11.6167    0.0000 O   0  0  0  0  0  0  0  0  0  0  0  0
   12.1667   -8.2667    0.0000 C   0  0  0  0  0  0  0  0  0  0  0  0
    3.5792   -9.1042    0.0000 O   0  0  0  0  0  0  0  0  0  0  0  0
    2.7542   -9.9375    0.0000 O   0  0  0  0  0  0  0  0  0  0  0  0
   -0.8875  -10.1292    0.0000 O   0  0  0  0  0  0  0  0  0  0  0  0
    5.5292  -12.8042    0.0000 O   0  0  0  0  0  0  0  0  0  0  0  0
    7.0375   -9.6792    0.0000 C   0  0  0  0  0  0  0  0  0  0  0  0
    5.9542  -12.2000    0.0000 O   0  0  0  0  0  0  0  0  0  0  0  0
   -0.6000  -12.0792    0.0000 C   0  0  0  0  0  0  0  0  0  0  0  0
    8.2000  -10.8417    0.0000 C   0  0  0  0  0  0  0  0  0  0  0  0
    2.6625  -13.0167    0.0000 C   0  0  0  0  0  0  0  0  0  0  0  0
   10.7375   -6.6250    0.0000 O   0  0  0  0  0  0  0  0  0  0  0  0
    3.3750  -11.8250    0.0000 C   0  0  0  0  0  0  0  0  0  0  0  0
   -0.1750   -9.7292    0.0000 C   0  0  0  0  0  0  0  0  0  0  0  0
    4.4917  -13.7042    0.0000 C   0  0  0  0  0  0  0  0  0  0  0  0
    2.3667   -9.4292    0.0000 C   0  0  0  0  0  0  0  0  0  0  0  0
    6.8167  -10.4750    0.0000 C   0  0  0  0  0  0  0  0  0  0  0  0
    7.8250   -9.4667    0.0000 C   0  0  0  0  0  0  0  0  0  0  0  0
    8.4042  -10.0417    0.0000 C   0  0  0  0  0  0  0  0  0  0  0  0
    7.4042  -11.0542    0.0000 C   0  0  0  0  0  0  0  0  0  0  0  0
   10.7417   -8.2667    0.0000 O   0  0  0  0  0  0  0  0  0  0  0  0
    8.7792  -11.4167    0.0000 O   0  0  0  0  0  0  0  0  0  0  0  0
   -0.0708  -12.3667    0.0000 C   0  0  0  0  0  0  0  0  0  0  0  0
    5.4292  -11.0625    0.0000 C   0  0  0  0  0  0  0  0  0  0  0  0
    1.2417   -8.0792    0.0000 C   0  0  0  0  0  0  0  0  0  0  0  0
    8.6000   -7.8625    0.0000 C   0  0  0  0  0  0  0  0  0  0  0  0
    6.4417  -10.7667    0.0000 C   0  0  0  0  0  0  0  0  0  0  0  0
   10.0292   -7.8542    0.0000 C   0  0  0  0  0  0  0  0  0  0  0  0
    6.0292  -13.4625    0.0000 C   0  0  0  0  0  0  0  0  0  0  0  0
   10.0167   -7.0375    0.0000 C   0  0  0  0  0  0  0  0  0  0  0  0
    9.3167   -8.2667    0.0000 C   0  0  0  0  0  0  0  0  0  0  0  0
    0.1417  -13.1750    0.0000 C   0  0  0  0  0  0  0  0  0  0  0  0
  2  8  1  0
  3  5  1  0
  4 12  1  0
  5  2  1  0
  6 26  1  0
  7 15  1  6
  8  7  1  0
  9 14  1  0
 10  1  1  0
 11  3  1  0
 12  9  1  0
 13 10  1  0
 14 31  1  0
  1 15  1  1
 16 21  1  0
 17  7  1  0
 18 27  1  6
 19 20  1  0
 13 20  1  1
 21 18  1  0
 22  1  1  0
 23 18  1  0
 24 11  1  0
 25 28  1  0
 26 45  1  0
  2 27  1  1
 28 23  1  0
 29 19  1  0
 30 35  1  0
 31 32  1  0
 32 17  1  0
 33 29  1  0
 34 40  1  0
 35 42  2  0
 36 33  1  0
 37  6  1  0
 38  6  2  0
 39  3  2  0
 40 22  1  0
 41 14  2  0
 42 67  1  0
 43 19  2  0
 44 29  1  0
 45 48  2  0
 46 36  2  0
  4 47  1  1
 48 42  1  0
 10 49  1  6
 17 50  1  6
 12 51  1  6
 16 52  1  6
 53 44  1  0
 25 54  1  6
  4 55  1  6
 56 65  1  0
  5 57  1  1
 58 35  1  0
  8 59  1  1
  9 60  1  6
 16 61  1  1
 17 62  1  1
 63 53  2  0
 64 53  1  0
 65 64  2  0
 66 63  1  0
 67 74  1  0
 68 56  1  0
 24 69  1  1
 28 70  1  1
 31 71  1  6
 72 36  1  0
 40 73  1  1
 74 77  1  0
 75 52  1  0
 76 58  1  0
 77 72  1  0
 78 69  1  0
 13 34  1  0
 24  4  1  0
 16 25  1  0
 66 56  2  0
 30 26  2  0
M  CHG  2   6   1  37  -1
M  END

> <chembl_id>
CHEMBL405673

> <chembl_pref_name>
None


$$$$

     RDKit          2D

 64 67  0  0  1  0  0  0  0  0999 V2000
    5.1250   -8.9042    0.0000 C   0  0  0  0  0  0  0  0  0  0  0  0
    2.7667  -10.3417    0.0000 C   0  0  0  0  0  0  0  0  0  0  0  0
    2.0542  -11.5750    0.0000 C   0  0  0  0  0  0  0  0  0  0  0  0
    0.6417   -9.9375    0.0000 C   0  0  0  0  0  0  0  0  0  0  0  0
    2.7667  -11.1667    0.0000 C   0  0  0  0  0  0  0  0  0  0  0  0
    3.5000   -9.1292    0.0000 C   0  0  0  0  0  0  0  0  0  0  0  0
    3.4917   -9.9625    0.0000 C   0  0  0  0  0  0  0  0  0  0  0  0
    1.3667   -8.7125    0.0000 C   0  0  0  0  0  0  0  0  0  0  0  0
    5.1250   -8.0792    0.0000 C   0  0  0  0  0  0  0  0  0  0  0  0
    1.3542  -11.1625    0.0000 O   0  0  0  0  0  0  0  0  0  0  0  0
    0.6500   -9.1167    0.0000 C   0  0  0  0  0  0  0  0  0  0  0  0
    1.3542   -7.8875    0.0000 C   0  0  0  0  0  0  0  0  0  0  0  0
    4.3000   -8.9042    0.0000 O   0  0  0  0  0  0  0  0  0  0  0  0
    5.5375  -11.4750    0.0000 C   0  0  0  0  0  0  0  0  0  0  0  0
    5.8417   -7.6750    0.0000 C   0  0  0  0  0  0  0  0  0  0  0  0
    2.7875   -8.7167    0.0000 C   0  0  0  0  0  0  0  0  0  0  0  0
   10.8292   -5.6125    0.0000 N   0  0  0  0  0  0  0  0  0  0  0  0
    4.3042  -10.7542    0.0000 C   0  0  0  0  0  0  0  0  0  0  0  0
    4.7167  -11.4667    0.0000 C   0  0  0  0  0  0  0  0  0  0  0  0
    5.8417   -9.3250    0.0000 O   0  0  0  0  0  0  0  0  0  0  0  0
    4.7167  -10.0417    0.0000 O   0  0  0  0  0  0  0  0  0  0  0  0
    1.3542  -10.3500    0.0000 C   0  0  0  0  0  0  0  0  0  0  0  0
    5.9542  -10.7625    0.0000 C   0  0  0  0  0  0  0  0  0  0  0  0
   10.8292   -4.7875    0.0000 N   0  0  0  0  0  0  0  0  0  0  0  0
    3.4792  -10.7542    0.0000 O   0  0  0  0  0  0  0  0  0  0  0  0
    5.5417  -10.0417    0.0000 C   0  0  0  0  0  0  0  0  0  0  0  0
    5.8417   -6.8417    0.0000 N   0  0  0  0  0  0  0  0  0  0  0  0
    2.0667   -7.4667    0.0000 C   0  0  0  0  0  0  0  0  0  0  0  0
    2.7875   -7.8875    0.0000 C   0  0  0  0  0  0  0  0  0  0  0  0
    8.7042   -6.8500    0.0000 C   0  0  0  0  0  0  0  0  0  0  0  0
    6.5625   -8.0875    0.0000 C   0  0  0  0  0  0  0  0  0  0  0  0
    6.5625   -6.4292    0.0000 C   0  0  0  0  0  0  0  0  0  0  0  0
   10.8292   -6.4375    0.0000 N   0  0  0  0  0  0  0  0  0  0  0  0
    8.6917   -7.6792    0.0000 C   0  0  0  0  0  0  0  0  0  0  0  0
    9.4125   -6.4417    0.0000 C   0  0  0  0  0  0  0  0  0  0  0  0
    2.0542  -12.4042    0.0000 O   0  0  0  0  0  0  0  0  0  0  0  0
    6.5542   -8.9125    0.0000 C   0  0  0  0  0  0  0  0  0  0  0  0
    7.9917   -6.4375    0.0000 O   0  0  0  0  0  0  0  0  0  0  0  0
    0.6292   -7.4792    0.0000 O   0  0  0  0  0  0  0  0  0  0  0  0
   10.1250   -6.8500    0.0000 C   0  0  0  0  0  0  0  0  0  0  0  0
    6.5625   -5.6042    0.0000 O   0  0  0  0  0  0  0  0  0  0  0  0
   -0.1375  -10.1792    0.0000 O   0  0  0  0  0  0  0  0  0  0  0  0
    9.4042   -8.0917    0.0000 C   0  0  0  0  0  0  0  0  0  0  0  0
    4.4042   -7.6667    0.0000 O   0  0  0  0  0  0  0  0  0  0  0  0
    7.2750   -6.8500    0.0000 C   0  0  0  0  0  0  0  0  0  0  0  0
    3.5875   -8.5000    0.0000 O   0  0  0  0  0  0  0  0  0  0  0  0
   -0.0583   -8.7000    0.0000 O   0  0  0  0  0  0  0  0  0  0  0  0
    6.3542  -11.3667    0.0000 O   0  0  0  0  0  0  0  0  0  0  0  0
    6.7792  -10.7667    0.0000 O   0  0  0  0  0  0  0  0  0  0  0  0
    0.2250  -10.6417    0.0000 C   0  0  0  0  0  0  0  0  0  0  0  0
   10.1250   -7.6792    0.0000 C   0  0  0  0  0  0  0  0  0  0  0  0
    3.4875  -11.5792    0.0000 C   0  0  0  0  0  0  0  0  0  0  0  0
    4.2042  -10.3875    0.0000 C   0  0  0  0  0  0  0  0  0  0  0  0
    0.6500   -8.2917    0.0000 C   0  0  0  0  0  0  0  0  0  0  0  0
    5.3167  -12.2667    0.0000 C   0  0  0  0  0  0  0  0  0  0  0  0
    3.1917   -7.9917    0.0000 C   0  0  0  0  0  0  0  0  0  0  0  0
    7.9792   -8.0875    0.0000 C   0  0  0  0  0  0  0  0  0  0  0  0
    0.7625  -10.9292    0.0000 C   0  0  0  0  0  0  0  0  0  0  0  0
    7.9750   -8.9125    0.0000 O   0  0  0  0  0  0  0  0  0  0  0  0
    6.2542   -9.6250    0.0000 C   0  0  0  0  0  0  0  0  0  0  0  0
    2.0667   -6.6417    0.0000 C   0  0  0  0  0  0  0  0  0  0  0  0
    7.2667   -9.3292    0.0000 C   0  0  0  0  0  0  0  0  0  0  0  0
    6.8542  -12.0167    0.0000 C   0  0  0  0  0  0  0  0  0  0  0  0
    0.9667  -11.7375    0.0000 C   0  0  0  0  0  0  0  0  0  0  0  0
  2  7  1  0
  3  5  1  0
  4 11  1  0
  5  2  1  0
  6 13  1  6
  7  6  1  0
  8 12  1  0
  9  1  1  0
 10  3  1  0
 11  8  1  0
 12 28  1  0
  1 13  1  1
 14 19  1  0
 15  9  1  0
 16  6  1  0
 17 33  2  0
 18 25  1  6
 19 18  1  0
 20  1  1  0
 21 18  1  0
 22 10  1  0
 23 26  1  0
 24 17  2  0
  2 25  1  1
 26 21  1  0
 15 27  1  1
 28 29  1  0
 29 16  1  0
 30 38  1  0
 31 37  1  0
 32 27  1  0
 33 40  1  0
 34 30  2  0
 35 30  1  0
 36  3  2  0
 37 20  1  0
 38 45  1  0
 39 12  2  0
 40 35  2  0
 41 32  2  0
  4 42  1  1
 43 34  1  0
  9 44  1  6
 45 32  1  0
 16 46  1  6
 11 47  1  6
 14 48  1  6
 23 49  1  6
  4 50  1  6
 51 40  1  0
  5 52  1  1
  7 53  1  1
  8 54  1  6
 14 55  1  1
 16 56  1  1
 57 34  1  0
 22 58  1  1
 59 57  1  0
 26 60  1  1
 28 61  1  6
 37 62  1  1
 63 48  1  0
 64 58  1  0
 15 31  1  0
 22  4  1  0
 14 23  1  0
 43 51  2  0
M  CHG  2  17   1  24  -1
M  END

> <chembl_id>
CHEMBL308640

> <chembl_pref_name>
None


$$$$

     RDKit          2D

 69 72  0  0  0  0  0  0  0  0999 V2000
    4.2371   -4.0339    0.0000 C   0  0  0  0  0  0  0  0  0  0  0  0
    3.5257   -3.6161    0.0000 C   0  0  0  0  0  0  0  0  0  0  0  0
    3.5341   -2.7954    0.0000 O   0  0  0  0  0  0  0  0  0  0  0  0
    4.2467   -2.3881    0.0000 C   0  0  0  0  0  0  0  0  0  0  0  0
    4.9582   -2.8059    0.0000 C   0  0  0  0  0  0  0  0  0  0  0  0
    4.9569   -3.6309    0.0000 C   0  0  0  0  0  0  0  0  0  0  0  0
    5.6684   -4.0486    0.0000 O   0  0  0  0  0  0  0  0  0  0  0  0
    4.2286   -4.8588    0.0000 O   0  0  0  0  0  0  0  0  0  0  0  0
    5.6745   -2.3965    0.0000 O   0  0  0  0  0  0  0  0  0  0  0  0
    4.2516   -1.5631    0.0000 C   0  0  0  0  0  0  0  0  0  0  0  0
    3.5396   -1.1465    0.0000 O   0  0  0  0  0  0  0  0  0  0  0  0
    2.8076   -4.0223    0.0000 O   0  0  0  0  0  0  0  0  0  0  0  0
   -0.7542    0.5333    0.0000 C   0  0  0  0  0  0  0  0  0  0  0  0
   -1.4704    0.9500    0.0000 C   0  0  0  0  0  0  0  0  0  0  0  0
   -2.1907    0.5333    0.0000 C   0  0  0  0  0  0  0  0  0  0  0  0
   -1.4704    1.7791    0.0000 C   0  0  0  0  0  0  0  0  0  0  0  0
   -2.1907   -0.2959    0.0000 C   0  0  0  0  0  0  0  0  0  0  0  0
   -2.9069    0.9500    0.0000 O   0  0  0  0  0  0  0  0  0  0  0  0
   -0.7542   -0.2959    0.0000 C   0  0  0  0  0  0  0  0  0  0  0  0
   -0.0338   -0.7084    0.0000 C   0  0  0  0  0  0  0  0  0  0  0  0
   -0.7459   -1.1209    0.0000 O   0  0  0  0  0  0  0  0  0  0  0  0
   -1.4641   -1.5370    0.0000 C   0  0  0  0  0  0  0  0  0  0  0  0
    0.6861   -0.2942    0.0000 O   0  0  0  0  0  0  0  0  0  0  0  0
   -0.0338   -1.5375    0.0000 C   0  0  0  0  0  0  0  0  0  0  0  0
   -0.7542   -1.9542    0.0000 C   0  0  0  0  0  0  0  0  0  0  0  0
   -0.7542   -2.7834    0.0000 C   0  0  0  0  0  0  0  0  0  0  0  0
   -1.4704   -3.2000    0.0000 C   0  0  0  0  0  0  0  0  0  0  0  0
   -1.4704   -4.0292    0.0000 O   0  0  0  0  0  0  0  0  0  0  0  0
   -2.1907   -1.9542    0.0000 C   0  0  0  0  0  0  0  0  0  0  0  0
   -2.1907   -2.7834    0.0000 O   0  0  0  0  0  0  0  0  0  0  0  0
   -2.9000   -2.3625    0.0000 C   0  0  0  0  0  0  0  0  0  0  0  0
   -2.9002   -3.1917    0.0000 C   0  0  0  0  0  0  0  0  0  0  0  0
   -2.9111   -0.7056    0.0000 C   0  0  0  0  0  0  0  0  0  0  0  0
   -2.9069   -1.5375    0.0000 C   0  0  0  0  0  0  0  0  0  0  0  0
   -3.6965   -1.7991    0.0000 O   0  0  0  0  0  0  0  0  0  0  0  0
   -3.7070   -0.4526    0.0000 O   0  0  0  0  0  0  0  0  0  0  0  0
   -1.4776   -0.7107    0.0000 C   0  0  0  0  0  0  0  0  0  0  0  0
   -0.0417   -2.3667    0.0000 O   0  0  0  0  0  0  0  0  0  0  0  0
    0.6708   -2.7792    0.0000 C   0  0  0  0  0  0  0  0  0  0  0  0
    0.6678   -3.6034    0.0000 C   0  0  0  0  0  0  0  0  0  0  0  0
    1.3762   -4.0158    0.0000 C   0  0  0  0  0  0  0  0  0  0  0  0
    2.0921   -3.6086    0.0000 C   0  0  0  0  0  0  0  0  0  0  0  0
    2.0951   -2.7843    0.0000 C   0  0  0  0  0  0  0  0  0  0  0  0
    1.3822   -2.3674    0.0000 O   0  0  0  0  0  0  0  0  0  0  0  0
    2.8115   -2.3751    0.0000 C   0  0  0  0  0  0  0  0  0  0  0  0
    0.9583   -4.7250    0.0000 C   0  0  0  0  0  0  0  0  0  0  0  0
    1.7833   -4.7250    0.0000 O   0  0  0  0  0  0  0  0  0  0  0  0
    2.6083   -4.7271    0.0000 C   0  0  0  0  0  0  0  0  0  0  0  0
    1.0851    0.4252    0.0000 C   0  0  0  0  0  0  0  0  0  0  0  0
    1.9085    0.4374    0.0000 O   0  0  0  0  0  0  0  0  0  0  0  0
    2.3075    1.1526    0.0000 C   0  0  0  0  0  0  0  0  0  0  0  0
    1.8875    1.8604    0.0000 C   0  0  0  0  0  0  0  0  0  0  0  0
    1.0640    1.8481    0.0000 C   0  0  0  0  0  0  0  0  0  0  0  0
    0.6605    1.1283    0.0000 C   0  0  0  0  0  0  0  0  0  0  0  0
    3.1325    1.1638    0.0000 C   0  0  0  0  0  0  0  0  0  0  0  0
    0.6416    2.5569    0.0000 N   0  0  0  0  0  0  0  0  0  0  0  0
    1.0442    3.2770    0.0000 C   0  0  0  0  0  0  0  0  0  0  0  0
   -0.1833    2.5455    0.0000 C   0  0  0  0  0  0  0  0  0  0  0  0
   -0.1643    1.1149    0.0000 O   0  0  0  0  0  0  0  0  0  0  0  0
   -0.0390   -3.1947    0.0000 C   0  0  0  0  0  0  0  0  0  0  0  0
    0.7875   -1.5375    0.0000 C   0  0  0  0  0  0  0  0  0  0  0  0
   -3.5770   -1.0562    0.0000 C   0  0  0  0  0  0  0  0  0  0  0  0
   -1.4739    0.1074    0.0000 C   0  0  0  0  0  0  0  0  0  0  0  0
    1.5009   -0.2874    0.0000 H   0  0  0  0  0  0  0  0  0  0  0  0
    0.6667   -1.9542    0.0000 H   0  0  0  0  0  0  0  0  0  0  0  0
    3.5208   -4.4375    0.0000 H   0  0  0  0  0  0  0  0  0  0  0  0
    4.9388   -5.2786    0.0000 C   0  0  0  0  0  0  0  0  0  0  0  0
    4.9303   -6.1036    0.0000 C   0  0  0  0  0  0  0  0  0  0  0  0
    5.6575   -4.8735    0.0000 O   0  0  0  0  0  0  0  0  0  0  0  0
 34 35  1  1
 33 36  1  6
 17 33  1  0
 17 37  1  6
  5  9  1  1
 25 38  1  1
 13 19  1  0
 38 39  1  0
 39 40  1  0
  2  3  1  0
 19 20  1  0
  4 10  1  6
 19 21  1  6
  3  4  1  0
 39 44  1  0
 40 41  1  0
 41 42  1  0
 42 43  1  0
 43 44  1  0
 21 22  1  0
 43 45  1  1
 10 11  1  0
 41 46  1  1
 20 23  1  6
 41 47  1  0
  4  5  1  0
 47 48  1  0
 42 12  1  6
 20 24  1  0
 23 49  1  0
 49 50  1  0
  2 12  1  0
 24 25  1  0
  5  6  1  0
 25 26  1  0
 49 54  1  0
 50 51  1  0
 51 52  1  0
 52 53  1  0
 53 54  1  0
 26 27  1  0
 51 55  1  1
 13 14  1  0
 53 56  1  1
 27 28  2  0
 56 57  1  0
 27 30  1  0
 56 58  1  0
  6  7  1  6
 54 59  1  6
 34 29  1  0
 14 15  1  0
 29 30  1  0
 26 60  1  1
  1  2  1  0
 24 61  1  1
 29 31  1  1
 14 16  1  6
 34 62  1  0
 31 32  1  0
 19 63  1  0
 49 64  1  6
 33 34  1  0
 39 65  1  1
  1  8  1  1
  2 66  1  1
 15 17  1  0
  8 67  1  0
  1  6  1  0
 67 68  1  0
 15 18  2  0
 67 69  2  0
M  END

> <chembl_id>
CHEMBL1224599

> <chembl_pref_name>
None


$$$$

     RDKit          2D

 77 81  0  0  0  0  0  0  0  0999 V2000
    4.0246   -3.8297    0.0000 C   0  0  0  0  0  0  0  0  0  0  0  0
    3.3132   -3.4119    0.0000 C   0  0  0  0  0  0  0  0  0  0  0  0
    3.3216   -2.5912    0.0000 O   0  0  0  0  0  0  0  0  0  0  0  0
    4.0342   -2.1840    0.0000 C   0  0  0  0  0  0  0  0  0  0  0  0
    4.7457   -2.6017    0.0000 C   0  0  0  0  0  0  0  0  0  0  0  0
    4.7444   -3.4267    0.0000 C   0  0  0  0  0  0  0  0  0  0  0  0
    5.4559   -3.8444    0.0000 O   0  0  0  0  0  0  0  0  0  0  0  0
    4.0161   -4.6546    0.0000 O   0  0  0  0  0  0  0  0  0  0  0  0
    5.4620   -2.1924    0.0000 O   0  0  0  0  0  0  0  0  0  0  0  0
    4.0391   -1.3589    0.0000 C   0  0  0  0  0  0  0  0  0  0  0  0
    3.3271   -0.9423    0.0000 O   0  0  0  0  0  0  0  0  0  0  0  0
    2.5951   -3.8181    0.0000 O   0  0  0  0  0  0  0  0  0  0  0  0
   -0.9667    0.7375    0.0000 C   0  0  0  0  0  0  0  0  0  0  0  0
   -1.6829    1.1542    0.0000 C   0  0  0  0  0  0  0  0  0  0  0  0
   -2.4032    0.7375    0.0000 C   0  0  0  0  0  0  0  0  0  0  0  0
   -1.6829    1.9833    0.0000 C   0  0  0  0  0  0  0  0  0  0  0  0
   -2.4032   -0.0917    0.0000 C   0  0  0  0  0  0  0  0  0  0  0  0
   -3.1194    1.1542    0.0000 O   0  0  0  0  0  0  0  0  0  0  0  0
   -0.9667   -0.0917    0.0000 C   0  0  0  0  0  0  0  0  0  0  0  0
   -0.2463   -0.5042    0.0000 C   0  0  0  0  0  0  0  0  0  0  0  0
   -0.9584   -0.9167    0.0000 O   0  0  0  0  0  0  0  0  0  0  0  0
   -1.6766   -1.3328    0.0000 C   0  0  0  0  0  0  0  0  0  0  0  0
    0.4736   -0.0901    0.0000 O   0  0  0  0  0  0  0  0  0  0  0  0
   -0.2463   -1.3333    0.0000 C   0  0  0  0  0  0  0  0  0  0  0  0
   -0.9667   -1.7500    0.0000 C   0  0  0  0  0  0  0  0  0  0  0  0
   -0.9667   -2.5792    0.0000 C   0  0  0  0  0  0  0  0  0  0  0  0
   -1.6829   -2.9958    0.0000 C   0  0  0  0  0  0  0  0  0  0  0  0
   -1.6829   -3.8250    0.0000 O   0  0  0  0  0  0  0  0  0  0  0  0
   -2.4032   -1.7500    0.0000 C   0  0  0  0  0  0  0  0  0  0  0  0
   -2.4032   -2.5792    0.0000 O   0  0  0  0  0  0  0  0  0  0  0  0
   -3.1125   -2.1583    0.0000 C   0  0  0  0  0  0  0  0  0  0  0  0
   -3.1127   -2.9875    0.0000 C   0  0  0  0  0  0  0  0  0  0  0  0
   -3.1236   -0.5014    0.0000 C   0  0  0  0  0  0  0  0  0  0  0  0
   -3.1194   -1.3333    0.0000 C   0  0  0  0  0  0  0  0  0  0  0  0
   -3.9090   -1.5949    0.0000 O   0  0  0  0  0  0  0  0  0  0  0  0
   -3.9195   -0.2484    0.0000 O   0  0  0  0  0  0  0  0  0  0  0  0
   -1.6901   -0.5065    0.0000 C   0  0  0  0  0  0  0  0  0  0  0  0
   -0.2542   -2.1625    0.0000 O   0  0  0  0  0  0  0  0  0  0  0  0
    0.4583   -2.5750    0.0000 C   0  0  0  0  0  0  0  0  0  0  0  0
    0.4553   -3.3992    0.0000 C   0  0  0  0  0  0  0  0  0  0  0  0
    1.1637   -3.8116    0.0000 C   0  0  0  0  0  0  0  0  0  0  0  0
    1.8796   -3.4044    0.0000 C   0  0  0  0  0  0  0  0  0  0  0  0
    1.8826   -2.5801    0.0000 C   0  0  0  0  0  0  0  0  0  0  0  0
    1.1697   -2.1632    0.0000 O   0  0  0  0  0  0  0  0  0  0  0  0
    2.5990   -2.1709    0.0000 C   0  0  0  0  0  0  0  0  0  0  0  0
    0.7458   -4.5208    0.0000 C   0  0  0  0  0  0  0  0  0  0  0  0
    1.5708   -4.5208    0.0000 O   0  0  0  0  0  0  0  0  0  0  0  0
    2.3958   -4.5229    0.0000 C   0  0  0  0  0  0  0  0  0  0  0  0
    0.8726    0.6294    0.0000 C   0  0  0  0  0  0  0  0  0  0  0  0
    1.6960    0.6416    0.0000 O   0  0  0  0  0  0  0  0  0  0  0  0
    2.0950    1.3568    0.0000 C   0  0  0  0  0  0  0  0  0  0  0  0
    1.6750    2.0646    0.0000 C   0  0  0  0  0  0  0  0  0  0  0  0
    0.8515    2.0523    0.0000 C   0  0  0  0  0  0  0  0  0  0  0  0
    0.4480    1.3324    0.0000 C   0  0  0  0  0  0  0  0  0  0  0  0
    2.9200    1.3680    0.0000 C   0  0  0  0  0  0  0  0  0  0  0  0
    0.4291    2.7610    0.0000 N   0  0  0  0  0  0  0  0  0  0  0  0
    0.8317    3.4812    0.0000 C   0  0  0  0  0  0  0  0  0  0  0  0
   -0.3958    2.7497    0.0000 C   0  0  0  0  0  0  0  0  0  0  0  0
   -0.3768    1.3191    0.0000 O   0  0  0  0  0  0  0  0  0  0  0  0
   -0.2515   -2.9905    0.0000 C   0  0  0  0  0  0  0  0  0  0  0  0
    0.5750   -1.3333    0.0000 C   0  0  0  0  0  0  0  0  0  0  0  0
   -3.7895   -0.8520    0.0000 C   0  0  0  0  0  0  0  0  0  0  0  0
   -1.6864    0.3116    0.0000 C   0  0  0  0  0  0  0  0  0  0  0  0
    1.2884   -0.0832    0.0000 H   0  0  0  0  0  0  0  0  0  0  0  0
    0.4542   -1.7500    0.0000 H   0  0  0  0  0  0  0  0  0  0  0  0
    3.3083   -4.2333    0.0000 H   0  0  0  0  0  0  0  0  0  0  0  0
    4.7263   -5.0745    0.0000 C   0  0  0  0  0  0  0  0  0  0  0  0
    4.7178   -5.8994    0.0000 C   0  0  0  0  0  0  0  0  0  0  0  0
    5.4450   -4.6694    0.0000 O   0  0  0  0  0  0  0  0  0  0  0  0
    3.3319   -0.1173    0.0000 C   0  0  0  0  0  0  0  0  0  0  0  0
    2.6199    0.2994    0.0000 O   0  0  0  0  0  0  0  0  0  0  0  0
    4.0488    0.2910    0.0000 C   0  0  0  0  0  0  0  0  0  0  0  0
    4.7604   -0.1272    0.0000 C   0  0  0  0  0  0  0  0  0  0  0  0
    5.4768    0.2804    0.0000 C   0  0  0  0  0  0  0  0  0  0  0  0
    5.4821    1.1063    0.0000 C   0  0  0  0  0  0  0  0  0  0  0  0
    4.7650    1.5228    0.0000 C   0  0  0  0  0  0  0  0  0  0  0  0
    4.0515    1.1128    0.0000 C   0  0  0  0  0  0  0  0  0  0  0  0
 39 40  1  0
  2  3  1  0
 19 20  1  0
  4 10  1  6
 19 21  1  6
  3  4  1  0
 39 44  1  0
 40 41  1  0
 41 42  1  0
 42 43  1  0
 43 44  1  0
 21 22  1  0
 43 45  1  1
 10 11  1  0
 41 46  1  1
 20 23  1  6
 41 47  1  0
  4  5  1  0
 47 48  1  0
 42 12  1  6
 20 24  1  0
 23 49  1  0
 49 50  1  0
  2 12  1  0
 24 25  1  0
  5  6  1  0
 25 26  1  0
 49 54  1  0
 50 51  1  0
 51 52  1  0
 52 53  1  0
 53 54  1  0
 26 27  1  0
 51 55  1  1
 13 14  1  0
 53 56  1  1
 27 28  2  0
 56 57  1  0
 27 30  1  0
 56 58  1  0
  6  7  1  6
 54 59  1  6
 34 29  1  0
 14 15  1  0
 29 30  1  0
 26 60  1  1
  1  2  1  0
 24 61  1  1
 29 31  1  1
 14 16  1  6
 34 62  1  0
 31 32  1  0
 19 63  1  0
 49 64  1  6
 33 34  1  0
 39 65  1  1
  1  8  1  1
  2 66  1  1
 15 17  1  0
  8 67  1  0
  1  6  1  0
 67 68  1  0
 15 18  2  0
 67 69  2  0
 34 35  1  1
 11 70  1  0
 33 36  1  6
 70 71  2  0
 17 33  1  0
 70 72  1  0
 17 37  1  6
 72 73  2  0
  5  9  1  1
 73 74  1  0
 25 38  1  1
 74 75  2  0
 13 19  1  0
 75 76  1  0
 38 39  1  0
 76 77  2  0
 77 72  1  0
M  END

> <chembl_id>
CHEMBL1224601

> <chembl_pref_name>
None


$$$$

     RDKit          2D

 78 82  0  0  0  0  0  0  0  0999 V2000
    3.8663   -3.7381    0.0000 C   0  0  0  0  0  0  0  0  0  0  0  0
    3.1549   -3.3202    0.0000 C   0  0  0  0  0  0  0  0  0  0  0  0
    3.1632   -2.4995    0.0000 O   0  0  0  0  0  0  0  0  0  0  0  0
    3.8759   -2.0923    0.0000 C   0  0  0  0  0  0  0  0  0  0  0  0
    4.5874   -2.5100    0.0000 C   0  0  0  0  0  0  0  0  0  0  0  0
    4.5861   -3.3350    0.0000 C   0  0  0  0  0  0  0  0  0  0  0  0
    5.2976   -3.7528    0.0000 O   0  0  0  0  0  0  0  0  0  0  0  0
    3.8578   -4.5630    0.0000 O   0  0  0  0  0  0  0  0  0  0  0  0
    5.3036   -2.1007    0.0000 O   0  0  0  0  0  0  0  0  0  0  0  0
    3.8808   -1.2673    0.0000 C   0  0  0  0  0  0  0  0  0  0  0  0
    3.1688   -0.8506    0.0000 O   0  0  0  0  0  0  0  0  0  0  0  0
    2.4368   -3.7264    0.0000 O   0  0  0  0  0  0  0  0  0  0  0  0
   -1.1250    0.8292    0.0000 C   0  0  0  0  0  0  0  0  0  0  0  0
   -1.8412    1.2459    0.0000 C   0  0  0  0  0  0  0  0  0  0  0  0
   -2.5615    0.8292    0.0000 C   0  0  0  0  0  0  0  0  0  0  0  0
   -1.8412    2.0750    0.0000 C   0  0  0  0  0  0  0  0  0  0  0  0
   -2.5615    0.0000    0.0000 C   0  0  0  0  0  0  0  0  0  0  0  0
   -3.2777    1.2459    0.0000 O   0  0  0  0  0  0  0  0  0  0  0  0
   -1.1250    0.0000    0.0000 C   0  0  0  0  0  0  0  0  0  0  0  0
   -0.4046   -0.4125    0.0000 C   0  0  0  0  0  0  0  0  0  0  0  0
   -1.1167   -0.8250    0.0000 O   0  0  0  0  0  0  0  0  0  0  0  0
   -1.8349   -1.2411    0.0000 C   0  0  0  0  0  0  0  0  0  0  0  0
    0.3153    0.0016    0.0000 O   0  0  0  0  0  0  0  0  0  0  0  0
   -0.4046   -1.2416    0.0000 C   0  0  0  0  0  0  0  0  0  0  0  0
   -1.1250   -1.6583    0.0000 C   0  0  0  0  0  0  0  0  0  0  0  0
   -1.1250   -2.4875    0.0000 C   0  0  0  0  0  0  0  0  0  0  0  0
   -1.8412   -2.9041    0.0000 C   0  0  0  0  0  0  0  0  0  0  0  0
   -1.8412   -3.7333    0.0000 O   0  0  0  0  0  0  0  0  0  0  0  0
   -2.5615   -1.6583    0.0000 C   0  0  0  0  0  0  0  0  0  0  0  0
   -2.5615   -2.4875    0.0000 O   0  0  0  0  0  0  0  0  0  0  0  0
   -3.2708   -2.0666    0.0000 C   0  0  0  0  0  0  0  0  0  0  0  0
   -3.2710   -2.8958    0.0000 C   0  0  0  0  0  0  0  0  0  0  0  0
   -3.2819   -0.4097    0.0000 C   0  0  0  0  0  0  0  0  0  0  0  0
   -3.2777   -1.2416    0.0000 C   0  0  0  0  0  0  0  0  0  0  0  0
   -4.0673   -1.5032    0.0000 O   0  0  0  0  0  0  0  0  0  0  0  0
   -4.0778   -0.1567    0.0000 O   0  0  0  0  0  0  0  0  0  0  0  0
   -1.8484   -0.4148    0.0000 C   0  0  0  0  0  0  0  0  0  0  0  0
   -0.4125   -2.0708    0.0000 O   0  0  0  0  0  0  0  0  0  0  0  0
    0.3000   -2.4833    0.0000 C   0  0  0  0  0  0  0  0  0  0  0  0
    0.2970   -3.3075    0.0000 C   0  0  0  0  0  0  0  0  0  0  0  0
    1.0054   -3.7199    0.0000 C   0  0  0  0  0  0  0  0  0  0  0  0
    1.7213   -3.3127    0.0000 C   0  0  0  0  0  0  0  0  0  0  0  0
    1.7243   -2.4884    0.0000 C   0  0  0  0  0  0  0  0  0  0  0  0
    1.0114   -2.0715    0.0000 O   0  0  0  0  0  0  0  0  0  0  0  0
    2.4407   -2.0792    0.0000 C   0  0  0  0  0  0  0  0  0  0  0  0
    0.5875   -4.4291    0.0000 C   0  0  0  0  0  0  0  0  0  0  0  0
    1.4125   -4.4291    0.0000 O   0  0  0  0  0  0  0  0  0  0  0  0
    2.2375   -4.4312    0.0000 C   0  0  0  0  0  0  0  0  0  0  0  0
    0.7142    0.7210    0.0000 C   0  0  0  0  0  0  0  0  0  0  0  0
    1.5377    0.7332    0.0000 O   0  0  0  0  0  0  0  0  0  0  0  0
    1.9367    1.4485    0.0000 C   0  0  0  0  0  0  0  0  0  0  0  0
    1.5166    2.1562    0.0000 C   0  0  0  0  0  0  0  0  0  0  0  0
    0.6931    2.1440    0.0000 C   0  0  0  0  0  0  0  0  0  0  0  0
    0.2897    1.4241    0.0000 C   0  0  0  0  0  0  0  0  0  0  0  0
    2.7617    1.4596    0.0000 C   0  0  0  0  0  0  0  0  0  0  0  0
    0.2708    2.8527    0.0000 N   0  0  0  0  0  0  0  0  0  0  0  0
    0.6734    3.5729    0.0000 C   0  0  0  0  0  0  0  0  0  0  0  0
   -0.5541    2.8414    0.0000 C   0  0  0  0  0  0  0  0  0  0  0  0
   -0.5352    1.4107    0.0000 O   0  0  0  0  0  0  0  0  0  0  0  0
   -0.4098   -2.8988    0.0000 C   0  0  0  0  0  0  0  0  0  0  0  0
    0.4167   -1.2416    0.0000 C   0  0  0  0  0  0  0  0  0  0  0  0
   -3.9478   -0.7603    0.0000 C   0  0  0  0  0  0  0  0  0  0  0  0
   -1.8447    0.4033    0.0000 C   0  0  0  0  0  0  0  0  0  0  0  0
    1.1301    0.0085    0.0000 H   0  0  0  0  0  0  0  0  0  0  0  0
    0.2958   -1.6583    0.0000 H   0  0  0  0  0  0  0  0  0  0  0  0
    3.1500   -4.1417    0.0000 H   0  0  0  0  0  0  0  0  0  0  0  0
    5.3073   -1.2757    0.0000 C   0  0  0  0  0  0  0  0  0  0  0  0
    6.0303   -0.8687    0.0000 C   0  0  0  0  0  0  0  0  0  0  0  0
    6.0359   -0.0473    0.0000 C   0  0  0  0  0  0  0  0  0  0  0  0
    5.3251    0.3722    0.0000 C   0  0  0  0  0  0  0  0  0  0  0  0
    4.6070   -0.0359    0.0000 C   0  0  0  0  0  0  0  0  0  0  0  0
    4.5997   -0.8635    0.0000 O   0  0  0  0  0  0  0  0  0  0  0  0
    6.0167   -1.6875    0.0000 H   0  0  0  0  0  0  0  0  0  0  0  0
    6.7411   -1.2875    0.0000 O   0  0  0  0  0  0  0  0  0  0  0  0
    5.3319    1.1972    0.0000 O   0  0  0  0  0  0  0  0  0  0  0  0
    3.8958    0.3822    0.0000 C   0  0  0  0  0  0  0  0  0  0  0  0
    3.9023    1.2071    0.0000 O   0  0  0  0  0  0  0  0  0  0  0  0
    6.7538    0.3593    0.0000 O   0  0  0  0  0  0  0  0  0  0  0  0
  2  3  1  0
 19 20  1  0
  4 10  1  6
 19 21  1  6
  3  4  1  0
 39 44  1  0
 40 41  1  0
 41 42  1  0
 42 43  1  0
 43 44  1  0
 21 22  1  0
 43 45  1  1
 10 11  1  0
 41 46  1  1
 20 23  1  6
 41 47  1  0
  4  5  1  0
 47 48  1  0
 42 12  1  6
 20 24  1  0
 23 49  1  0
 49 50  1  0
  2 12  1  0
 24 25  1  0
  5  6  1  0
 25 26  1  0
 49 54  1  0
 50 51  1  0
 51 52  1  0
 52 53  1  0
 53 54  1  0
 26 27  1  0
 51 55  1  1
 13 14  1  0
 53 56  1  1
 27 28  2  0
 56 57  1  0
 27 30  1  0
 56 58  1  0
  6  7  1  6
 54 59  1  6
 34 29  1  0
 14 15  1  0
 29 30  1  0
 26 60  1  1
  1  2  1  0
 24 61  1  1
 29 31  1  1
 14 16  1  6
 34 62  1  0
 31 32  1  0
 19 63  1  0
 49 64  1  6
 33 34  1  0
 39 65  1  1
  1  8  1  1
  2 66  1  1
 15 17  1  0
  9 67  1  0
 67 68  1  0
  1  6  1  0
 15 18  2  0
 34 35  1  1
 33 36  1  6
 17 33  1  0
 67 72  1  0
 68 69  1  0
 69 70  1  0
 70 71  1  0
 71 72  1  0
 17 37  1  6
 67 73  1  6
  5  9  1  1
 68 74  1  6
 25 38  1  1
 70 75  1  6
 13 19  1  0
 71 76  1  1
 38 39  1  0
 76 77  1  0
 39 40  1  0
 69 78  1  1
M  END

> <chembl_id>
CHEMBL1224603

> <chembl_pref_name>
None


$$$$

     RDKit          2D

 55 57  0  0  0  0  0  0  0  0999 V2000
   -3.0542    2.3208    0.0000 C   0  0  0  0  0  0  0  0  0  0  0  0
   -2.3397    2.7333    0.0000 C   0  0  0  0  0  0  0  0  0  0  0  0
   -1.6252    2.3208    0.0000 C   0  0  0  0  0  0  0  0  0  0  0  0
   -3.0542    1.4958    0.0000 C   0  0  0  0  0  0  0  0  0  0  0  0
   -1.6252    1.4958    0.0000 C   0  0  0  0  0  0  0  0  0  0  0  0
   -3.7686    1.0833    0.0000 C   0  0  0  0  0  0  0  0  0  0  0  0
   -3.7686    0.2583    0.0000 C   0  0  0  0  0  0  0  0  0  0  0  0
   -3.0542   -0.1542    0.0000 C   0  0  0  0  0  0  0  0  0  0  0  0
   -3.0542   -0.9792    0.0000 O   0  0  0  0  0  0  0  0  0  0  0  0
   -2.3397   -1.3917    0.0000 C   0  0  0  0  0  0  0  0  0  0  0  0
   -1.6252   -0.9792    0.0000 C   0  0  0  0  0  0  0  0  0  0  0  0
   -1.6252   -0.1542    0.0000 C   0  0  0  0  0  0  0  0  0  0  0  0
   -0.9108    0.2583    0.0000 C   0  0  0  0  0  0  0  0  0  0  0  0
   -0.9108    1.0833    0.0000 C   0  0  0  0  0  0  0  0  0  0  0  0
   -2.3397    3.5583    0.0000 C   0  0  0  0  0  0  0  0  0  0  0  0
   -3.7686    2.7333    0.0000 O   0  0  0  0  0  0  0  0  0  0  0  0
   -4.4831    1.4958    0.0000 O   0  0  0  0  0  0  0  0  0  0  0  0
   -5.1976    1.0833    0.0000 C   0  0  0  0  0  0  0  0  0  0  0  0
   -3.7708    1.9125    0.0000 C   0  0  0  0  0  0  0  0  0  0  0  0
   -4.4875    0.6750    0.0000 O   0  0  0  0  0  0  0  0  0  0  0  0
   -4.1875   -0.4500    0.0000 C   0  0  0  0  0  0  0  0  0  0  0  0
   -3.7697   -0.5665    0.0000 C   0  0  0  0  0  0  0  0  0  0  0  0
   -3.7696   -1.3915    0.0000 C   0  0  0  0  0  0  0  0  0  0  0  0
   -2.3397   -2.2167    0.0000 O   0  0  0  0  0  0  0  0  0  0  0  0
   -0.9167   -0.5625    0.0000 O   0  0  0  0  0  0  0  0  0  0  0  0
   -0.9160   -1.3875    0.0000 C   0  0  0  0  0  0  0  0  0  0  0  0
   -0.2012   -1.7994    0.0000 N   0  0  0  0  0  0  0  0  0  0  0  0
   -1.6302   -1.8006    0.0000 O   0  0  0  0  0  0  0  0  0  0  0  0
   -2.2167   -0.3875    0.0000 C   0  0  0  0  0  0  0  0  0  0  0  0
   -0.1963   -0.1542    0.0000 C   0  0  0  0  0  0  0  0  0  0  0  0
   -0.1963    1.4958    0.0000 O   0  0  0  0  0  0  0  0  0  0  0  0
   -2.3458    1.9125    0.0000 C   0  0  0  0  0  0  0  0  0  0  0  0
   -2.0458    0.7875    0.0000 O   0  0  0  0  0  0  0  0  0  0  0  0
   -2.8708    0.7976    0.0000 C   0  0  0  0  0  0  0  0  0  0  0  0
    0.5182    1.0833    0.0000 C   0  0  0  0  0  0  0  0  0  0  0  0
    0.5146    0.2619    0.0000 O   0  0  0  0  0  0  0  0  0  0  0  0
    1.2249   -0.1505    0.0000 C   0  0  0  0  0  0  0  0  0  0  0  0
    1.9418    0.2585    0.0000 C   0  0  0  0  0  0  0  0  0  0  0  0
    1.9438    1.0845    0.0000 C   0  0  0  0  0  0  0  0  0  0  0  0
    1.2289    1.5015    0.0000 C   0  0  0  0  0  0  0  0  0  0  0  0
    2.6597    1.4945    0.0000 N   0  0  0  0  0  0  0  0  0  0  0  0
    3.3727    1.0796    0.0000 C   0  0  0  0  0  0  0  0  0  0  0  0
    2.6625    2.3195    0.0000 C   0  0  0  0  0  0  0  0  0  0  0  0
    1.2273    2.3265    0.0000 O   0  0  0  0  0  0  0  0  0  0  0  0
    1.2218   -0.9755    0.0000 C   0  0  0  0  0  0  0  0  0  0  0  0
    0.5125    1.9125    0.0000 H   0  0  0  0  0  0  0  0  0  0  0  0
   -0.2006   -2.6244    0.0000 C   0  0  0  0  0  0  0  0  0  0  0  0
    0.5142   -3.0364    0.0000 C   0  0  0  0  0  0  0  0  0  0  0  0
    0.5149   -3.8614    0.0000 C   0  0  0  0  0  0  0  0  0  0  0  0
   -0.2001   -4.2690    0.0000 C   0  0  0  0  0  0  0  0  0  0  0  0
   -0.1998   -5.0932    0.0000 C   0  0  0  0  0  0  0  0  0  0  0  0
    0.5155   -5.5060    0.0000 C   0  0  0  0  0  0  0  0  0  0  0  0
    1.2320   -5.0885    0.0000 C   0  0  0  0  0  0  0  0  0  0  0  0
    1.2282   -4.2656    0.0000 C   0  0  0  0  0  0  0  0  0  0  0  0
    0.5173   -6.3310    0.0000 O   0  0  0  0  0  0  0  0  0  0  0  0
 13 14  1  0
 26 28  2  0
 14  5  1  0
 11 29  1  1
  1  4  1  0
 13 30  1  1
  2 15  1  6
 14 31  1  6
  7  8  1  0
  5 32  1  1
  1 16  2  0
  5 33  1  0
 33 34  1  0
  6 17  1  6
 31 35  1  0
 35 36  1  0
  8  9  1  0
 17 18  1  0
  3  5  1  0
  4 19  1  1
  9 10  1  0
 35 40  1  0
 36 37  1  0
 37 38  1  0
 38 39  1  0
 39 40  1  0
  7 20  1  1
 39 41  1  1
  2  3  1  0
 41 42  1  0
  7 21  1  0
 41 43  1  0
 10 11  1  0
 40 44  1  6
  8 22  1  1
 37 45  1  1
  4  6  1  0
 35 46  1  6
 22 23  1  0
 27 47  1  0
 11 12  1  0
 47 48  1  0
 10 24  2  0
 48 49  1  0
  1  2  1  0
 49 50  2  0
 12 25  1  1
 50 51  1  0
 12 13  1  0
 51 52  2  0
 25 26  1  0
 52 53  1  0
  6  7  1  0
 53 54  2  0
 54 49  1  0
 26 27  1  0
 52 55  1  0
M  END

> <chembl_id>
CHEMBL1240642

> <chembl_pref_name>
None


$$$$

     RDKit          2D

 56 59  0  0  0  0  0  0  0  0999 V2000
    0.1167  -23.0292    0.0000 C   0  0  0  0  0  0  0  0  0  0  0  0
   -1.3000  -23.0250    0.0000 C   0  0  0  0  0  0  0  0  0  0  0  0
   -2.7250  -23.0250    0.0000 C   0  0  0  0  0  0  0  0  0  0  0  0
   -3.4458  -20.9667    0.0000 C   0  0  0  0  0  0  0  0  0  0  0  0
   -2.0083  -23.4375    0.0000 C   0  0  0  0  0  0  0  0  0  0  0  0
   -0.5875  -21.7875    0.0000 C   0  0  0  0  0  0  0  0  0  0  0  0
   -1.3000  -22.2000    0.0000 C   0  0  0  0  0  0  0  0  0  0  0  0
   -2.7250  -19.7292    0.0000 C   0  0  0  0  0  0  0  0  0  0  0  0
   -2.7250  -22.2042    0.0000 O   0  0  0  0  0  0  0  0  0  0  0  0
   -2.7250  -20.5542    0.0000 C   0  0  0  0  0  0  0  0  0  0  0  0
   -2.0208  -19.3167    0.0000 C   0  0  0  0  0  0  0  0  0  0  0  0
    0.1250  -22.2042    0.0000 O   0  0  0  0  0  0  0  0  0  0  0  0
   -1.7750  -25.9792    0.0000 C   0  0  0  0  0  0  0  0  0  0  0  0
   -0.5875  -20.9667    0.0000 C   0  0  0  0  0  0  0  0  0  0  0  0
   -1.7333  -24.5417    0.0000 C   0  0  0  0  0  0  0  0  0  0  0  0
   -1.3458  -25.2750    0.0000 C   0  0  0  0  0  0  0  0  0  0  0  0
   -0.6000  -23.4417    0.0000 O   0  0  0  0  0  0  0  0  0  0  0  0
   -2.5708  -24.5167    0.0000 O   0  0  0  0  0  0  0  0  0  0  0  0
   -3.4458  -21.7917    0.0000 C   0  0  0  0  0  0  0  0  0  0  0  0
   -2.5958  -25.9542    0.0000 C   0  0  0  0  0  0  0  0  0  0  0  0
   -1.3083  -23.8417    0.0000 O   0  0  0  0  0  0  0  0  0  0  0  0
   -2.9958  -25.2292    0.0000 C   0  0  0  0  0  0  0  0  0  0  0  0
   -1.3000  -19.7292    0.0000 C   0  0  0  0  0  0  0  0  0  0  0  0
   -1.3000  -20.5542    0.0000 C   0  0  0  0  0  0  0  0  0  0  0  0
    0.1167  -24.6792    0.0000 C   0  0  0  0  0  0  0  0  0  0  0  0
   -3.4375  -23.4417    0.0000 O   0  0  0  0  0  0  0  0  0  0  0  0
   -0.5958  -24.2667    0.0000 C   0  0  0  0  0  0  0  0  0  0  0  0
   -2.0208  -18.5000    0.0000 O   0  0  0  0  0  0  0  0  0  0  0  0
   -3.9583  -20.3167    0.0000 O   0  0  0  0  0  0  0  0  0  0  0  0
   -2.0208  -20.9667    0.0000 O   0  0  0  0  0  0  0  0  0  0  0  0
   -2.2125  -26.6792    0.0000 O   0  0  0  0  0  0  0  0  0  0  0  0
   -0.5958  -20.1375    0.0000 O   0  0  0  0  0  0  0  0  0  0  0  0
   -3.0375  -26.6542    0.0000 O   0  0  0  0  0  0  0  0  0  0  0  0
   -3.9875  -21.5875    0.0000 C   0  0  0  0  0  0  0  0  0  0  0  0
   -2.7250  -23.8375    0.0000 C   0  0  0  0  0  0  0  0  0  0  0  0
   -2.0208  -21.7875    0.0000 C   0  0  0  0  0  0  0  0  0  0  0  0
   -3.4458  -19.3167    0.0000 C   0  0  0  0  0  0  0  0  0  0  0  0
   -0.9500  -26.0042    0.0000 C   0  0  0  0  0  0  0  0  0  0  0  0
    0.1250  -21.3792    0.0000 C   0  0  0  0  0  0  0  0  0  0  0  0
   -4.1500  -22.2042    0.0000 C   0  0  0  0  0  0  0  0  0  0  0  0
   -3.8208  -25.2042    0.0000 C   0  0  0  0  0  0  0  0  0  0  0  0
   -0.5875  -19.3167    0.0000 C   0  0  0  0  0  0  0  0  0  0  0  0
   -1.0375  -24.6833    0.0000 C   0  0  0  0  0  0  0  0  0  0  0  0
   -1.8208  -27.4042    0.0000 C   0  0  0  0  0  0  0  0  0  0  0  0
    0.1125  -19.7167    0.0000 C   0  0  0  0  0  0  0  0  0  0  0  0
   -4.8708  -21.7917    0.0000 C   0  0  0  0  0  0  0  0  0  0  0  0
   -2.1500  -23.8292    0.0000 H   0  0  0  0  0  0  0  0  0  0  0  0
    0.8417  -23.4417    0.0000 C   0  0  0  0  0  0  0  0  0  0  0  0
    0.8420  -24.2666    0.0000 C   0  0  0  0  0  0  0  0  0  0  0  0
    1.6268  -24.5212    0.0000 N   0  0  0  0  0  0  0  0  0  0  0  0
    2.1114  -23.8536    0.0000 C   0  0  0  0  0  0  0  0  0  0  0  0
    1.6261  -23.1864    0.0000 O   0  0  0  0  0  0  0  0  0  0  0  0
   -0.5917  -22.6125    0.0000 H   0  0  0  0  0  0  0  0  0  0  0  0
    0.8375  -22.6167    0.0000 H   0  0  0  0  0  0  0  0  0  0  0  0
    0.8375  -25.0875    0.0000 H   0  0  0  0  0  0  0  0  0  0  0  0
    2.9364  -23.8532    0.0000 O   0  0  0  0  0  0  0  0  0  0  0  0
  9  3  1  0
 10  8  1  0
 11 23  1  0
  1 12  1  1
 13 16  1  0
 14  6  1  0
 15 21  1  0
 16 15  1  0
 17  1  1  0
 18 15  1  0
 19  9  1  0
 20 22  1  0
  2 21  1  6
 22 18  1  0
 23 24  1  0
 24 14  1  0
 25 27  1  0
 26  3  2  0
 27 17  1  0
 28 11  2  0
  4 29  1  1
 10 30  1  1
 13 31  1  1
 14 32  1  1
 20 33  1  1
 34  4  1  0
  5 35  1  1
  7 36  1  6
  8 37  1  1
 38 13  1  0
 39 14  1  0
 19 40  1  6
 22 41  1  6
 23 42  1  6
 27 43  1  1
 44 31  1  0
 45 32  1  0
 46 40  1  0
 15 47  1  6
 25 49  1  0
  4 19  1  0
 20 13  1  0
 48 49  1  0
  2  7  1  0
  3  5  1  0
  4 10  1  0
  5  2  1  0
 49 50  1  0
 50 51  1  0
 51 52  1  0
 52 48  1  0
 48  1  1  0
  6 53  1  1
  6 12  1  0
 48 54  1  1
  7  6  1  0
 49 55  1  6
  8 11  1  0
 51 56  2  0
M  END

> <chembl_id>
CHEMBL2022721

> <chembl_pref_name>
None


$$$$

     RDKit          2D

 58 61  0  0  0  0  0  0  0  0999 V2000
    0.1458  -13.1167    0.0000 C   0  0  0  0  0  0  0  0  0  0  0  0
   -1.2708  -13.1125    0.0000 C   0  0  0  0  0  0  0  0  0  0  0  0
   -2.6958  -13.1125    0.0000 C   0  0  0  0  0  0  0  0  0  0  0  0
   -3.4167  -11.0542    0.0000 C   0  0  0  0  0  0  0  0  0  0  0  0
   -1.9792  -13.5250    0.0000 C   0  0  0  0  0  0  0  0  0  0  0  0
   -0.5583  -11.8750    0.0000 C   0  0  0  0  0  0  0  0  0  0  0  0
   -1.2708  -12.2875    0.0000 C   0  0  0  0  0  0  0  0  0  0  0  0
   -2.6958   -9.8167    0.0000 C   0  0  0  0  0  0  0  0  0  0  0  0
   -2.6958  -12.2917    0.0000 O   0  0  0  0  0  0  0  0  0  0  0  0
   -2.6958  -10.6417    0.0000 C   0  0  0  0  0  0  0  0  0  0  0  0
   -1.9917   -9.4042    0.0000 C   0  0  0  0  0  0  0  0  0  0  0  0
    0.1542  -12.2917    0.0000 O   0  0  0  0  0  0  0  0  0  0  0  0
   -1.7458  -16.0667    0.0000 C   0  0  0  0  0  0  0  0  0  0  0  0
   -0.5583  -11.0542    0.0000 C   0  0  0  0  0  0  0  0  0  0  0  0
   -1.7042  -14.6292    0.0000 C   0  0  0  0  0  0  0  0  0  0  0  0
   -1.3167  -15.3625    0.0000 C   0  0  0  0  0  0  0  0  0  0  0  0
   -0.5708  -13.5292    0.0000 O   0  0  0  0  0  0  0  0  0  0  0  0
   -2.5417  -14.6042    0.0000 O   0  0  0  0  0  0  0  0  0  0  0  0
   -3.4167  -11.8792    0.0000 C   0  0  0  0  0  0  0  0  0  0  0  0
   -2.5667  -16.0417    0.0000 C   0  0  0  0  0  0  0  0  0  0  0  0
   -1.2792  -13.9292    0.0000 O   0  0  0  0  0  0  0  0  0  0  0  0
   -2.9667  -15.3167    0.0000 C   0  0  0  0  0  0  0  0  0  0  0  0
   -1.2708   -9.8167    0.0000 C   0  0  0  0  0  0  0  0  0  0  0  0
   -1.2708  -10.6417    0.0000 C   0  0  0  0  0  0  0  0  0  0  0  0
    0.1458  -14.7667    0.0000 C   0  0  0  0  0  0  0  0  0  0  0  0
   -3.4083  -13.5292    0.0000 O   0  0  0  0  0  0  0  0  0  0  0  0
   -0.5667  -14.3542    0.0000 C   0  0  0  0  0  0  0  0  0  0  0  0
   -1.9917   -8.5875    0.0000 O   0  0  0  0  0  0  0  0  0  0  0  0
   -3.9292  -10.4042    0.0000 O   0  0  0  0  0  0  0  0  0  0  0  0
   -1.9917  -11.0542    0.0000 O   0  0  0  0  0  0  0  0  0  0  0  0
   -2.1833  -16.7667    0.0000 O   0  0  0  0  0  0  0  0  0  0  0  0
   -0.5667  -10.2250    0.0000 O   0  0  0  0  0  0  0  0  0  0  0  0
   -3.0083  -16.7417    0.0000 O   0  0  0  0  0  0  0  0  0  0  0  0
   -3.9583  -11.6750    0.0000 C   0  0  0  0  0  0  0  0  0  0  0  0
   -2.6958  -13.9250    0.0000 C   0  0  0  0  0  0  0  0  0  0  0  0
   -1.9917  -11.8750    0.0000 C   0  0  0  0  0  0  0  0  0  0  0  0
   -3.4167   -9.4042    0.0000 C   0  0  0  0  0  0  0  0  0  0  0  0
   -0.9208  -16.0917    0.0000 C   0  0  0  0  0  0  0  0  0  0  0  0
    0.1542  -11.4667    0.0000 C   0  0  0  0  0  0  0  0  0  0  0  0
   -4.1208  -12.2917    0.0000 C   0  0  0  0  0  0  0  0  0  0  0  0
   -3.7917  -15.2917    0.0000 C   0  0  0  0  0  0  0  0  0  0  0  0
   -0.5583   -9.4042    0.0000 C   0  0  0  0  0  0  0  0  0  0  0  0
   -1.0042  -14.7792    0.0000 C   0  0  0  0  0  0  0  0  0  0  0  0
   -1.7917  -17.4917    0.0000 C   0  0  0  0  0  0  0  0  0  0  0  0
    0.1417   -9.8042    0.0000 C   0  0  0  0  0  0  0  0  0  0  0  0
   -4.8417  -11.8792    0.0000 C   0  0  0  0  0  0  0  0  0  0  0  0
   -2.1208  -13.9167    0.0000 H   0  0  0  0  0  0  0  0  0  0  0  0
    0.8708  -13.5292    0.0000 C   0  0  0  0  0  0  0  0  0  0  0  0
    0.8712  -14.3541    0.0000 C   0  0  0  0  0  0  0  0  0  0  0  0
    1.6559  -14.6087    0.0000 N   0  0  0  0  0  0  0  0  0  0  0  0
    2.1406  -13.9411    0.0000 C   0  0  0  0  0  0  0  0  0  0  0  0
    1.6553  -13.2739    0.0000 O   0  0  0  0  0  0  0  0  0  0  0  0
   -0.5625  -12.7000    0.0000 H   0  0  0  0  0  0  0  0  0  0  0  0
    0.8667  -12.7042    0.0000 H   0  0  0  0  0  0  0  0  0  0  0  0
    0.8667  -15.1750    0.0000 H   0  0  0  0  0  0  0  0  0  0  0  0
    2.9656  -13.9407    0.0000 O   0  0  0  0  0  0  0  0  0  0  0  0
    1.9112  -15.3932    0.0000 C   0  0  0  0  0  0  0  0  0  0  0  0
    2.7182  -15.5644    0.0000 C   0  0  0  0  0  0  0  0  0  0  0  0
 11 23  1  0
  1 12  1  1
 13 16  1  0
 14  6  1  0
 15 21  1  0
 16 15  1  0
 17  1  1  0
 18 15  1  0
 19  9  1  0
 20 22  1  0
  2 21  1  6
 22 18  1  0
 23 24  1  0
 24 14  1  0
 25 27  1  0
 26  3  2  0
 27 17  1  0
 28 11  2  0
  4 29  1  1
 10 30  1  1
 13 31  1  1
 14 32  1  1
 20 33  1  1
 34  4  1  0
  5 35  1  1
  7 36  1  6
  8 37  1  1
 38 13  1  0
 39 14  1  0
 19 40  1  6
 22 41  1  6
 23 42  1  6
 27 43  1  1
 44 31  1  0
 45 32  1  0
 46 40  1  0
 15 47  1  6
 25 49  1  0
  4 19  1  0
 20 13  1  0
 48 49  1  0
  2  7  1  0
  3  5  1  0
  4 10  1  0
  5  2  1  0
 49 50  1  0
 50 51  1  0
 51 52  1  0
 52 48  1  0
 48  1  1  0
  6 53  1  1
  6 12  1  0
 48 54  1  1
  7  6  1  0
 49 55  1  6
  8 11  1  0
 51 56  2  0
  9  3  1  0
 50 57  1  0
 10  8  1  0
 57 58  1  0
M  END

> <chembl_id>
CHEMBL2022728

> <chembl_pref_name>
None


$$$$

     RDKit          2D

 59 62  0  0  0  0  0  0  0  0999 V2000
   12.1708  -12.8250    0.0000 C   0  0  0  0  0  0  0  0  0  0  0  0
   10.7542  -12.8208    0.0000 C   0  0  0  0  0  0  0  0  0  0  0  0
    9.3292  -12.8208    0.0000 C   0  0  0  0  0  0  0  0  0  0  0  0
    8.6083  -10.7625    0.0000 C   0  0  0  0  0  0  0  0  0  0  0  0
   10.0458  -13.2333    0.0000 C   0  0  0  0  0  0  0  0  0  0  0  0
   11.4667  -11.5833    0.0000 C   0  0  0  0  0  0  0  0  0  0  0  0
   10.7542  -11.9958    0.0000 C   0  0  0  0  0  0  0  0  0  0  0  0
    9.3292   -9.5250    0.0000 C   0  0  0  0  0  0  0  0  0  0  0  0
    9.3292  -12.0000    0.0000 O   0  0  0  0  0  0  0  0  0  0  0  0
    9.3292  -10.3500    0.0000 C   0  0  0  0  0  0  0  0  0  0  0  0
   10.0333   -9.1125    0.0000 C   0  0  0  0  0  0  0  0  0  0  0  0
   12.1792  -12.0000    0.0000 O   0  0  0  0  0  0  0  0  0  0  0  0
   10.2792  -15.7750    0.0000 C   0  0  0  0  0  0  0  0  0  0  0  0
   11.4667  -10.7625    0.0000 C   0  0  0  0  0  0  0  0  0  0  0  0
   10.3208  -14.3375    0.0000 C   0  0  0  0  0  0  0  0  0  0  0  0
   10.7083  -15.0708    0.0000 C   0  0  0  0  0  0  0  0  0  0  0  0
   11.4542  -13.2375    0.0000 O   0  0  0  0  0  0  0  0  0  0  0  0
    9.4833  -14.3125    0.0000 O   0  0  0  0  0  0  0  0  0  0  0  0
    8.6083  -11.5875    0.0000 C   0  0  0  0  0  0  0  0  0  0  0  0
    9.4583  -15.7500    0.0000 C   0  0  0  0  0  0  0  0  0  0  0  0
   10.7458  -13.6375    0.0000 O   0  0  0  0  0  0  0  0  0  0  0  0
    9.0583  -15.0250    0.0000 C   0  0  0  0  0  0  0  0  0  0  0  0
   10.7542   -9.5250    0.0000 C   0  0  0  0  0  0  0  0  0  0  0  0
   10.7542  -10.3500    0.0000 C   0  0  0  0  0  0  0  0  0  0  0  0
   12.1708  -14.4750    0.0000 C   0  0  0  0  0  0  0  0  0  0  0  0
    8.6167  -13.2375    0.0000 O   0  0  0  0  0  0  0  0  0  0  0  0
   11.4583  -14.0625    0.0000 C   0  0  0  0  0  0  0  0  0  0  0  0
   10.0333   -8.2958    0.0000 O   0  0  0  0  0  0  0  0  0  0  0  0
    8.0958  -10.1125    0.0000 O   0  0  0  0  0  0  0  0  0  0  0  0
   10.0333  -10.7625    0.0000 O   0  0  0  0  0  0  0  0  0  0  0  0
    9.8417  -16.4750    0.0000 O   0  0  0  0  0  0  0  0  0  0  0  0
   11.4583   -9.9333    0.0000 O   0  0  0  0  0  0  0  0  0  0  0  0
    9.0167  -16.4500    0.0000 O   0  0  0  0  0  0  0  0  0  0  0  0
    8.0667  -11.3833    0.0000 C   0  0  0  0  0  0  0  0  0  0  0  0
    9.3292  -13.6333    0.0000 C   0  0  0  0  0  0  0  0  0  0  0  0
   10.0333  -11.5833    0.0000 C   0  0  0  0  0  0  0  0  0  0  0  0
    8.6083   -9.1125    0.0000 C   0  0  0  0  0  0  0  0  0  0  0  0
   11.1042  -15.8000    0.0000 C   0  0  0  0  0  0  0  0  0  0  0  0
   12.1792  -11.1750    0.0000 C   0  0  0  0  0  0  0  0  0  0  0  0
    7.9042  -12.0000    0.0000 C   0  0  0  0  0  0  0  0  0  0  0  0
    8.2333  -15.0000    0.0000 C   0  0  0  0  0  0  0  0  0  0  0  0
   11.4667   -9.1125    0.0000 C   0  0  0  0  0  0  0  0  0  0  0  0
   11.0417  -14.4667    0.0000 C   0  0  0  0  0  0  0  0  0  0  0  0
   10.2333  -17.2000    0.0000 C   0  0  0  0  0  0  0  0  0  0  0  0
   12.1667   -9.5125    0.0000 C   0  0  0  0  0  0  0  0  0  0  0  0
    7.1833  -11.5875    0.0000 C   0  0  0  0  0  0  0  0  0  0  0  0
    9.9042  -13.6250    0.0000 H   0  0  0  0  0  0  0  0  0  0  0  0
   12.8958  -13.2375    0.0000 C   0  0  0  0  0  0  0  0  0  0  0  0
   12.8962  -14.0625    0.0000 C   0  0  0  0  0  0  0  0  0  0  0  0
   13.6809  -14.3171    0.0000 N   0  0  0  0  0  0  0  0  0  0  0  0
   14.1656  -13.6494    0.0000 C   0  0  0  0  0  0  0  0  0  0  0  0
   13.6803  -12.9823    0.0000 O   0  0  0  0  0  0  0  0  0  0  0  0
   11.4625  -12.4083    0.0000 H   0  0  0  0  0  0  0  0  0  0  0  0
   12.8917  -12.4125    0.0000 H   0  0  0  0  0  0  0  0  0  0  0  0
   12.8917  -14.8833    0.0000 H   0  0  0  0  0  0  0  0  0  0  0  0
   14.9906  -13.6490    0.0000 O   0  0  0  0  0  0  0  0  0  0  0  0
   13.9362  -15.1016    0.0000 C   0  0  0  0  0  0  0  0  0  0  0  0
   14.7432  -15.2728    0.0000 C   0  0  0  0  0  0  0  0  0  0  0  0
   14.9985  -16.0573    0.0000 C   0  0  0  0  0  0  0  0  0  0  0  0
  1 12  1  1
 13 16  1  0
 14  6  1  0
 15 21  1  0
 16 15  1  0
 17  1  1  0
 18 15  1  0
 19  9  1  0
 20 22  1  0
  2 21  1  6
 22 18  1  0
 23 24  1  0
 24 14  1  0
 25 27  1  0
 26  3  2  0
 27 17  1  0
 28 11  2  0
  4 29  1  1
 10 30  1  1
 13 31  1  1
 14 32  1  1
 20 33  1  1
 34  4  1  0
  5 35  1  1
  7 36  1  6
  8 37  1  1
 38 13  1  0
 39 14  1  0
 19 40  1  6
 22 41  1  6
 23 42  1  6
 27 43  1  1
 44 31  1  0
 45 32  1  0
 46 40  1  0
 15 47  1  6
 25 49  1  0
  4 19  1  0
 20 13  1  0
 48 49  1  0
  2  7  1  0
  3  5  1  0
  4 10  1  0
  5  2  1  0
 49 50  1  0
 50 51  1  0
 51 52  1  0
 52 48  1  0
 48  1  1  0
  6 53  1  1
  6 12  1  0
 48 54  1  1
  7  6  1  0
 49 55  1  6
  8 11  1  0
 51 56  2  0
  9  3  1  0
 50 57  1  0
 10  8  1  0
 57 58  1  0
 11 23  1  0
 58 59  1  0
M  END

> <chembl_id>
CHEMBL2023933

> <chembl_pref_name>
None


$$$$

     RDKit          2D

 63 67  0  0  0  0  0  0  0  0999 V2000
   -0.3542  -24.2375    0.0000 C   0  0  0  0  0  0  0  0  0  0  0  0
   -1.7708  -24.2333    0.0000 C   0  0  0  0  0  0  0  0  0  0  0  0
   -3.1958  -24.2333    0.0000 C   0  0  0  0  0  0  0  0  0  0  0  0
   -3.9167  -22.1750    0.0000 C   0  0  0  0  0  0  0  0  0  0  0  0
   -2.4792  -24.6458    0.0000 C   0  0  0  0  0  0  0  0  0  0  0  0
   -1.0583  -22.9958    0.0000 C   0  0  0  0  0  0  0  0  0  0  0  0
   -1.7708  -23.4083    0.0000 C   0  0  0  0  0  0  0  0  0  0  0  0
   -3.1958  -20.9375    0.0000 C   0  0  0  0  0  0  0  0  0  0  0  0
   -3.1958  -23.4125    0.0000 O   0  0  0  0  0  0  0  0  0  0  0  0
   -3.1958  -21.7625    0.0000 C   0  0  0  0  0  0  0  0  0  0  0  0
   -2.4917  -20.5250    0.0000 C   0  0  0  0  0  0  0  0  0  0  0  0
   -0.3458  -23.4125    0.0000 O   0  0  0  0  0  0  0  0  0  0  0  0
   -2.2458  -27.1875    0.0000 C   0  0  0  0  0  0  0  0  0  0  0  0
   -1.0583  -22.1750    0.0000 C   0  0  0  0  0  0  0  0  0  0  0  0
   -2.2042  -25.7500    0.0000 C   0  0  0  0  0  0  0  0  0  0  0  0
   -1.8167  -26.4833    0.0000 C   0  0  0  0  0  0  0  0  0  0  0  0
   -1.0708  -24.6500    0.0000 O   0  0  0  0  0  0  0  0  0  0  0  0
   -3.0417  -25.7250    0.0000 O   0  0  0  0  0  0  0  0  0  0  0  0
   -3.9167  -23.0000    0.0000 C   0  0  0  0  0  0  0  0  0  0  0  0
   -3.0667  -27.1625    0.0000 C   0  0  0  0  0  0  0  0  0  0  0  0
   -1.7792  -25.0500    0.0000 O   0  0  0  0  0  0  0  0  0  0  0  0
   -3.4667  -26.4375    0.0000 C   0  0  0  0  0  0  0  0  0  0  0  0
   -1.7708  -20.9375    0.0000 C   0  0  0  0  0  0  0  0  0  0  0  0
   -1.7708  -21.7625    0.0000 C   0  0  0  0  0  0  0  0  0  0  0  0
   -0.3542  -25.8875    0.0000 C   0  0  0  0  0  0  0  0  0  0  0  0
   -3.9083  -24.6500    0.0000 O   0  0  0  0  0  0  0  0  0  0  0  0
   -1.0667  -25.4750    0.0000 C   0  0  0  0  0  0  0  0  0  0  0  0
   -2.4917  -19.7083    0.0000 O   0  0  0  0  0  0  0  0  0  0  0  0
   -4.4292  -21.5250    0.0000 O   0  0  0  0  0  0  0  0  0  0  0  0
   -2.4917  -22.1750    0.0000 O   0  0  0  0  0  0  0  0  0  0  0  0
   -2.6833  -27.8875    0.0000 O   0  0  0  0  0  0  0  0  0  0  0  0
   -1.0667  -21.3458    0.0000 O   0  0  0  0  0  0  0  0  0  0  0  0
   -3.5083  -27.8625    0.0000 O   0  0  0  0  0  0  0  0  0  0  0  0
   -4.4583  -22.7958    0.0000 C   0  0  0  0  0  0  0  0  0  0  0  0
   -3.1958  -25.0458    0.0000 C   0  0  0  0  0  0  0  0  0  0  0  0
   -2.4917  -22.9958    0.0000 C   0  0  0  0  0  0  0  0  0  0  0  0
   -3.9167  -20.5250    0.0000 C   0  0  0  0  0  0  0  0  0  0  0  0
   -1.4208  -27.2125    0.0000 C   0  0  0  0  0  0  0  0  0  0  0  0
   -0.3458  -22.5875    0.0000 C   0  0  0  0  0  0  0  0  0  0  0  0
   -4.6208  -23.4125    0.0000 C   0  0  0  0  0  0  0  0  0  0  0  0
   -4.2917  -26.4125    0.0000 C   0  0  0  0  0  0  0  0  0  0  0  0
   -1.0583  -20.5250    0.0000 C   0  0  0  0  0  0  0  0  0  0  0  0
   -1.5042  -25.9042    0.0000 C   0  0  0  0  0  0  0  0  0  0  0  0
   -2.2917  -28.6125    0.0000 C   0  0  0  0  0  0  0  0  0  0  0  0
   -0.3583  -20.9250    0.0000 C   0  0  0  0  0  0  0  0  0  0  0  0
   -5.3417  -23.0000    0.0000 C   0  0  0  0  0  0  0  0  0  0  0  0
   -2.6208  -25.0375    0.0000 H   0  0  0  0  0  0  0  0  0  0  0  0
    0.3708  -24.6500    0.0000 C   0  0  0  0  0  0  0  0  0  0  0  0
    0.3712  -25.4750    0.0000 C   0  0  0  0  0  0  0  0  0  0  0  0
    1.1559  -25.7296    0.0000 N   0  0  0  0  0  0  0  0  0  0  0  0
    1.6406  -25.0619    0.0000 C   0  0  0  0  0  0  0  0  0  0  0  0
    1.1553  -24.3948    0.0000 O   0  0  0  0  0  0  0  0  0  0  0  0
   -1.0625  -23.8208    0.0000 H   0  0  0  0  0  0  0  0  0  0  0  0
    0.3667  -23.8250    0.0000 H   0  0  0  0  0  0  0  0  0  0  0  0
    0.3667  -26.2958    0.0000 H   0  0  0  0  0  0  0  0  0  0  0  0
    2.4656  -25.0615    0.0000 O   0  0  0  0  0  0  0  0  0  0  0  0
    1.5784  -26.4378    0.0000 C   0  0  0  0  0  0  0  0  0  0  0  0
    2.4033  -26.4263    0.0000 C   0  0  0  0  0  0  0  0  0  0  0  0
    2.8215  -27.1365    0.0000 C   0  0  0  0  0  0  0  0  0  0  0  0
    3.6457  -27.1254    0.0000 C   0  0  0  0  0  0  0  0  0  0  0  0
    4.0490  -26.4047    0.0000 C   0  0  0  0  0  0  0  0  0  0  0  0
    3.6221  -25.6937    0.0000 C   0  0  0  0  0  0  0  0  0  0  0  0
    2.7994  -25.7083    0.0000 C   0  0  0  0  0  0  0  0  0  0  0  0
 16 15  1  0
 17  1  1  0
 18 15  1  0
 19  9  1  0
 20 22  1  0
  2 21  1  6
 22 18  1  0
 23 24  1  0
 24 14  1  0
 25 27  1  0
 26  3  2  0
 27 17  1  0
 28 11  2  0
  4 29  1  1
 10 30  1  1
 13 31  1  1
 14 32  1  1
 20 33  1  1
 34  4  1  0
  5 35  1  1
  7 36  1  6
  8 37  1  1
 38 13  1  0
 39 14  1  0
 19 40  1  6
 22 41  1  6
 23 42  1  6
 27 43  1  1
 44 31  1  0
 45 32  1  0
 46 40  1  0
 15 47  1  6
 25 49  1  0
  4 19  1  0
 20 13  1  0
 48 49  1  0
  2  7  1  0
  3  5  1  0
  4 10  1  0
  5  2  1  0
 49 50  1  0
 50 51  1  0
 51 52  1  0
 52 48  1  0
 48  1  1  0
  6 53  1  1
  6 12  1  0
 48 54  1  1
  7  6  1  0
 49 55  1  6
  8 11  1  0
 51 56  2  0
  9  3  1  0
 50 57  1  0
 10  8  1  0
 57 58  1  0
 11 23  1  0
 58 59  2  0
  1 12  1  1
 59 60  1  0
 13 16  1  0
 60 61  2  0
 14  6  1  0
 61 62  1  0
 15 21  1  0
 62 63  2  0
 63 58  1  0
M  END

> <chembl_id>
CHEMBL2023934

> <chembl_pref_name>
None


$$$$

     RDKit          2D

 74 78  0  0  0  0  0  0  0  0999 V2000
   17.0043  -10.0618    0.0000 C   0  0  0  0  0  0  0  0  0  0  0  0
   17.0043   -9.2388    0.0000 C   0  0  0  0  0  0  0  0  0  0  0  0
   16.2941   -8.8315    0.0000 O   0  0  0  0  0  0  0  0  0  0  0  0
   15.5838   -9.2388    0.0000 C   0  0  0  0  0  0  0  0  0  0  0  0
   15.5838  -10.0618    0.0000 C   0  0  0  0  0  0  0  0  0  0  0  0
   16.2941  -10.4774    0.0000 C   0  0  0  0  0  0  0  0  0  0  0  0
   17.7165   -8.8263    0.0000 O   0  0  0  0  0  0  0  0  0  0  0  0
   14.8717   -8.8263    0.0000 C   0  0  0  0  0  0  0  0  0  0  0  0
   16.2941  -11.3004    0.0000 N   0  0  0  0  0  0  0  0  0  0  0  0
   15.5814  -11.7119    0.0000 C   0  0  0  0  0  0  0  0  0  0  0  0
   17.0068  -11.7119    0.0000 C   0  0  0  0  0  0  0  0  0  0  0  0
   14.8699  -10.4712    0.0000 O   0  0  0  0  0  0  0  0  0  0  0  0
   17.7182  -10.4712    0.0000 O   0  0  0  0  0  0  0  0  0  0  0  0
   14.1584  -10.0576    0.0000 C   0  0  0  0  0  0  0  0  0  0  0  0
   13.4445  -10.4670    0.0000 C   0  0  0  0  0  0  0  0  0  0  0  0
   12.7362  -10.0498    0.0000 C   0  0  0  0  0  0  0  0  0  0  0  0
   12.0228  -10.4586    0.0000 C   0  0  0  0  0  0  0  0  0  0  0  0
   12.0200  -11.2823    0.0000 C   0  0  0  0  0  0  0  0  0  0  0  0
   12.7364  -11.6958    0.0000 C   0  0  0  0  0  0  0  0  0  0  0  0
   13.4470  -11.2848    0.0000 C   0  0  0  0  0  0  0  0  0  0  0  0
   15.8270   -3.2887    0.0000 C   0  0  0  0  0  0  0  0  0  0  0  0
   15.8270   -2.4662    0.0000 C   0  0  0  0  0  0  0  0  0  0  0  0
   16.5409   -2.0570    0.0000 C   0  0  0  0  0  0  0  0  0  0  0  0
   17.2549   -2.4704    0.0000 C   0  0  0  0  0  0  0  0  0  0  0  0
   17.2549   -3.2929    0.0000 C   0  0  0  0  0  0  0  0  0  0  0  0
   17.9689   -3.7021    0.0000 C   0  0  0  0  0  0  0  0  0  0  0  0
   17.9689   -4.5245    0.0000 C   0  0  0  0  0  0  0  0  0  0  0  0
   17.2549   -4.9379    0.0000 C   0  0  0  0  0  0  0  0  0  0  0  0
   17.2549   -5.7604    0.0000 C   0  0  0  0  0  0  0  0  0  0  0  0
   16.5409   -6.1737    0.0000 C   0  0  0  0  0  0  0  0  0  0  0  0
   15.8270   -5.7645    0.0000 O   0  0  0  0  0  0  0  0  0  0  0  0
   15.8270   -4.9421    0.0000 C   0  0  0  0  0  0  0  0  0  0  0  0
   16.5427   -7.0004    0.0000 O   0  0  0  0  0  0  0  0  0  0  0  0
   16.5427   -1.2303    0.0000 C   0  0  0  0  0  0  0  0  0  0  0  0
   15.1117   -2.0517    0.0000 O   0  0  0  0  0  0  0  0  0  0  0  0
   18.0523   -3.0758    0.0000 C   0  0  0  0  0  0  0  0  0  0  0  0
   17.6641   -2.5748    0.0000 O   0  0  0  0  0  0  0  0  0  0  0  0
   17.4470   -1.7731    0.0000 C   0  0  0  0  0  0  0  0  0  0  0  0
   18.6829   -3.2845    0.0000 O   0  0  0  0  0  0  0  0  0  0  0  0
   19.4010   -3.6939    0.0000 C   0  0  0  0  0  0  0  0  0  0  0  0
   19.4035   -4.5213    0.0000 O   0  0  0  0  0  0  0  0  0  0  0  0
   20.1176   -4.9306    0.0000 C   0  0  0  0  0  0  0  0  0  0  0  0
   20.8338   -4.5168    0.0000 C   0  0  0  0  0  0  0  0  0  0  0  0
   20.8311   -3.6892    0.0000 C   0  0  0  0  0  0  0  0  0  0  0  0
   20.1124   -3.2753    0.0000 C   0  0  0  0  0  0  0  0  0  0  0  0
   20.1191   -5.7573    0.0000 C   0  0  0  0  0  0  0  0  0  0  0  0
   21.5461   -3.2743    0.0000 N   0  0  0  0  0  0  0  0  0  0  0  0
   22.2630   -3.6861    0.0000 C   0  0  0  0  0  0  0  0  0  0  0  0
   21.5443   -2.4476    0.0000 C   0  0  0  0  0  0  0  0  0  0  0  0
   20.1086   -2.4487    0.0000 O   0  0  0  0  0  0  0  0  0  0  0  0
   19.1839   -2.8921    0.0000 H   0  0  0  0  0  0  0  0  0  0  0  0
   15.1089   -2.8754    0.0000 C   0  0  0  0  0  0  0  0  0  0  0  0
   14.9043   -5.3220    0.0000 C   0  0  0  0  0  0  0  0  0  0  0  0
   18.6829   -4.9379    0.0000 C   0  0  0  0  0  0  0  0  0  0  0  0
   17.8394   -5.5224    0.0000 O   0  0  0  0  0  0  0  0  0  0  0  0
   15.4095   -5.6561    0.0000 C   0  0  0  0  0  0  0  0  0  0  0  0
   15.8189   -6.3742    0.0000 C   0  0  0  0  0  0  0  0  0  0  0  0
   16.4562   -5.5469    0.0000 C   0  0  0  0  0  0  0  0  0  0  0  0
   17.8104   -6.3486    0.0000 C   0  0  0  0  0  0  0  0  0  0  0  0
   17.0803   -6.7358    0.0000 O   0  0  0  0  0  0  0  0  0  0  0  0
   17.0495   -7.5582    0.0000 C   0  0  0  0  0  0  0  0  0  0  0  0
   17.7485   -8.0002    0.0000 C   0  0  0  0  0  0  0  0  0  0  0  0
   18.4802   -7.6135    0.0000 C   0  0  0  0  0  0  0  0  0  0  0  0
   18.5130   -6.7848    0.0000 C   0  0  0  0  0  0  0  0  0  0  0  0
   18.6912   -8.4075    0.0000 O   0  0  0  0  0  0  0  0  0  0  0  0
   19.3049   -7.6100    0.0000 C   0  0  0  0  0  0  0  0  0  0  0  0
   19.4892   -8.6232    0.0000 C   0  0  0  0  0  0  0  0  0  0  0  0
   18.5241   -5.9274    0.0000 H   0  0  0  0  0  0  0  0  0  0  0  0
   16.3181   -7.9435    0.0000 C   0  0  0  0  0  0  0  0  0  0  0  0
   15.1169   -4.5200    0.0000 C   0  0  0  0  0  0  0  0  0  0  0  0
   15.1172   -3.7021    0.0000 C   0  0  0  0  0  0  0  0  0  0  0  0
   14.3394   -3.4489    0.0000 O   0  0  0  0  0  0  0  0  0  0  0  0
   14.3388   -4.7725    0.0000 O   0  0  0  0  0  0  0  0  0  0  0  0
   16.7896   -8.4443    0.0000 H   0  0  0  0  0  0  0  0  0  0  0  0
  1  2  1  0
  1  6  1  0
  2  3  1  0
  3  4  1  0
  4  5  1  0
  5  6  1  0
  2  7  1  0
  4  8  1  1
  6  9  1  1
  9 10  1  0
  9 11  1  0
  5 12  1  6
  1 13  1  6
 12 14  1  0
 14 15  1  0
 15 16  2  0
 16 17  1  0
 17 18  2  0
 18 19  1  0
 19 20  2  0
 20 15  1  0
 71 21  1  0
 21 22  1  0
 22 23  1  0
 23 24  1  0
 24 25  1  0
 25 26  1  0
 26 27  1  0
 27 28  1  0
 28 29  1  0
 29 30  1  0
 30 31  1  0
 32 31  1  0
 70 32  1  0
 30 33  2  0
 23 34  1  6
 22 35  2  0
 25 36  1  0
 25 37  1  6
 37 38  1  0
 26 39  1  6
 39 40  1  0
 40 41  1  0
 40 45  1  0
 41 42  1  0
 42 43  1  0
 43 44  1  0
 44 45  1  0
 42 46  1  1
 44 47  1  1
 47 48  1  0
 47 49  1  0
 45 50  1  6
 40 51  1  6
 21 52  1  6
 70 53  1  0
 27 54  1  1
 28 55  1  1
 32 56  1  1
 56 57  1  0
 29 58  1  1
 55 59  1  0
 59 60  1  0
 59 64  1  0
 60 61  1  0
 61 62  1  0
 62 63  1  0
 63 64  1  0
 62  7  1  1
 63 65  1  1
 63 66  1  0
 65 67  1  0
 59 68  1  6
 61 69  1  6
 71 70  1  0
 71 72  1  6
 70 73  1  1
  2 74  1  6
M  END

> <chembl_id>
CHEMBL2441780

> <chembl_pref_name>
None


$$$$

     RDKit          2D

 75 79  0  0  0  0  0  0  0  0999 V2000
    5.3833  -23.0723    0.0000 C   0  0  0  0  0  0  0  0  0  0  0  0
    5.3833  -22.2493    0.0000 C   0  0  0  0  0  0  0  0  0  0  0  0
    4.6730  -21.8420    0.0000 O   0  0  0  0  0  0  0  0  0  0  0  0
    3.9628  -22.2493    0.0000 C   0  0  0  0  0  0  0  0  0  0  0  0
    3.9628  -23.0723    0.0000 C   0  0  0  0  0  0  0  0  0  0  0  0
    4.6730  -23.4879    0.0000 C   0  0  0  0  0  0  0  0  0  0  0  0
    6.0954  -21.8368    0.0000 O   0  0  0  0  0  0  0  0  0  0  0  0
    3.2505  -21.8368    0.0000 C   0  0  0  0  0  0  0  0  0  0  0  0
    4.6730  -24.3109    0.0000 N   0  0  0  0  0  0  0  0  0  0  0  0
    3.9603  -24.7224    0.0000 C   0  0  0  0  0  0  0  0  0  0  0  0
    5.3857  -24.7224    0.0000 C   0  0  0  0  0  0  0  0  0  0  0  0
    3.2488  -23.4817    0.0000 O   0  0  0  0  0  0  0  0  0  0  0  0
    6.0972  -23.4817    0.0000 O   0  0  0  0  0  0  0  0  0  0  0  0
    6.8088  -23.0681    0.0000 C   0  0  0  0  0  0  0  0  0  0  0  0
    7.5227  -23.4775    0.0000 C   0  0  0  0  0  0  0  0  0  0  0  0
    6.8063  -22.2451    0.0000 O   0  0  0  0  0  0  0  0  0  0  0  0
    7.5212  -24.2995    0.0000 C   0  0  0  0  0  0  0  0  0  0  0  0
    8.2342  -24.7088    0.0000 C   0  0  0  0  0  0  0  0  0  0  0  0
    8.9468  -24.2952    0.0000 C   0  0  0  0  0  0  0  0  0  0  0  0
    8.9417  -23.4680    0.0000 C   0  0  0  0  0  0  0  0  0  0  0  0
    8.2280  -23.0623    0.0000 C   0  0  0  0  0  0  0  0  0  0  0  0
    4.2059  -16.2990    0.0000 C   0  0  0  0  0  0  0  0  0  0  0  0
    4.2059  -15.4764    0.0000 C   0  0  0  0  0  0  0  0  0  0  0  0
    4.9199  -15.0672    0.0000 C   0  0  0  0  0  0  0  0  0  0  0  0
    5.6339  -15.4806    0.0000 C   0  0  0  0  0  0  0  0  0  0  0  0
    5.6339  -16.3031    0.0000 C   0  0  0  0  0  0  0  0  0  0  0  0
    6.3479  -16.7123    0.0000 C   0  0  0  0  0  0  0  0  0  0  0  0
    6.3479  -17.5348    0.0000 C   0  0  0  0  0  0  0  0  0  0  0  0
    5.6339  -17.9482    0.0000 C   0  0  0  0  0  0  0  0  0  0  0  0
    5.6339  -18.7707    0.0000 C   0  0  0  0  0  0  0  0  0  0  0  0
    4.9199  -19.1841    0.0000 C   0  0  0  0  0  0  0  0  0  0  0  0
    4.2059  -18.7749    0.0000 O   0  0  0  0  0  0  0  0  0  0  0  0
    4.2059  -17.9523    0.0000 C   0  0  0  0  0  0  0  0  0  0  0  0
    4.9217  -20.0109    0.0000 O   0  0  0  0  0  0  0  0  0  0  0  0
    4.9217  -14.2405    0.0000 C   0  0  0  0  0  0  0  0  0  0  0  0
    3.4906  -15.0619    0.0000 O   0  0  0  0  0  0  0  0  0  0  0  0
    6.4314  -16.0860    0.0000 C   0  0  0  0  0  0  0  0  0  0  0  0
    6.0431  -15.5849    0.0000 O   0  0  0  0  0  0  0  0  0  0  0  0
    5.8259  -14.7833    0.0000 C   0  0  0  0  0  0  0  0  0  0  0  0
    7.0619  -16.2947    0.0000 O   0  0  0  0  0  0  0  0  0  0  0  0
    7.7801  -16.7041    0.0000 C   0  0  0  0  0  0  0  0  0  0  0  0
    7.7826  -17.5316    0.0000 O   0  0  0  0  0  0  0  0  0  0  0  0
    8.4968  -17.9408    0.0000 C   0  0  0  0  0  0  0  0  0  0  0  0
    9.2128  -17.5270    0.0000 C   0  0  0  0  0  0  0  0  0  0  0  0
    9.2102  -16.6994    0.0000 C   0  0  0  0  0  0  0  0  0  0  0  0
    8.4915  -16.2856    0.0000 C   0  0  0  0  0  0  0  0  0  0  0  0
    8.4983  -18.7676    0.0000 C   0  0  0  0  0  0  0  0  0  0  0  0
    9.9254  -16.2845    0.0000 N   0  0  0  0  0  0  0  0  0  0  0  0
   10.6422  -16.6963    0.0000 C   0  0  0  0  0  0  0  0  0  0  0  0
    9.9236  -15.4577    0.0000 C   0  0  0  0  0  0  0  0  0  0  0  0
    8.4876  -15.4588    0.0000 O   0  0  0  0  0  0  0  0  0  0  0  0
    7.5629  -15.9023    0.0000 H   0  0  0  0  0  0  0  0  0  0  0  0
    3.4878  -15.8855    0.0000 C   0  0  0  0  0  0  0  0  0  0  0  0
    3.2832  -18.3323    0.0000 C   0  0  0  0  0  0  0  0  0  0  0  0
    7.0619  -17.9482    0.0000 C   0  0  0  0  0  0  0  0  0  0  0  0
    6.2185  -18.5327    0.0000 O   0  0  0  0  0  0  0  0  0  0  0  0
    3.7884  -18.6664    0.0000 C   0  0  0  0  0  0  0  0  0  0  0  0
    4.1977  -19.3846    0.0000 C   0  0  0  0  0  0  0  0  0  0  0  0
    4.8352  -18.5572    0.0000 C   0  0  0  0  0  0  0  0  0  0  0  0
    6.1895  -19.3590    0.0000 C   0  0  0  0  0  0  0  0  0  0  0  0
    5.4592  -19.7461    0.0000 O   0  0  0  0  0  0  0  0  0  0  0  0
    5.4284  -20.5687    0.0000 C   0  0  0  0  0  0  0  0  0  0  0  0
    6.1276  -21.0106    0.0000 C   0  0  0  0  0  0  0  0  0  0  0  0
    6.8593  -20.6239    0.0000 C   0  0  0  0  0  0  0  0  0  0  0  0
    6.8921  -19.7952    0.0000 C   0  0  0  0  0  0  0  0  0  0  0  0
    7.0702  -21.4179    0.0000 O   0  0  0  0  0  0  0  0  0  0  0  0
    7.6840  -20.6205    0.0000 C   0  0  0  0  0  0  0  0  0  0  0  0
    7.8683  -21.6336    0.0000 C   0  0  0  0  0  0  0  0  0  0  0  0
    6.9032  -18.9378    0.0000 H   0  0  0  0  0  0  0  0  0  0  0  0
    4.6970  -20.9539    0.0000 C   0  0  0  0  0  0  0  0  0  0  0  0
    3.4958  -17.5304    0.0000 C   0  0  0  0  0  0  0  0  0  0  0  0
    3.4961  -16.7123    0.0000 C   0  0  0  0  0  0  0  0  0  0  0  0
    2.7182  -16.4592    0.0000 O   0  0  0  0  0  0  0  0  0  0  0  0
    2.7177  -17.7827    0.0000 O   0  0  0  0  0  0  0  0  0  0  0  0
    5.1686  -21.4548    0.0000 H   0  0  0  0  0  0  0  0  0  0  0  0
  1  2  1  0
  1  6  1  0
  2  3  1  0
  3  4  1  0
  4  5  1  0
  5  6  1  0
  2  7  1  0
  4  8  1  1
  6  9  1  1
  9 10  1  0
  9 11  1  0
  5 12  1  6
  1 13  1  6
 13 14  1  0
 14 15  1  0
 14 16  2  0
 15 17  2  0
 17 18  1  0
 18 19  2  0
 19 20  1  0
 20 21  2  0
 21 15  1  0
 72 22  1  0
 22 23  1  0
 23 24  1  0
 24 25  1  0
 25 26  1  0
 26 27  1  0
 27 28  1  0
 28 29  1  0
 29 30  1  0
 30 31  1  0
 31 32  1  0
 33 32  1  0
 71 33  1  0
 31 34  2  0
 24 35  1  6
 23 36  2  0
 26 37  1  0
 26 38  1  6
 38 39  1  0
 27 40  1  6
 40 41  1  0
 41 42  1  0
 41 46  1  0
 42 43  1  0
 43 44  1  0
 44 45  1  0
 45 46  1  0
 43 47  1  1
 45 48  1  1
 48 49  1  0
 48 50  1  0
 46 51  1  6
 41 52  1  6
 22 53  1  6
 71 54  1  0
 28 55  1  1
 29 56  1  1
 33 57  1  1
 57 58  1  0
 30 59  1  1
 56 60  1  0
 60 61  1  0
 60 65  1  0
 61 62  1  0
 62 63  1  0
 63 64  1  0
 64 65  1  0
 63  7  1  1
 64 66  1  1
 64 67  1  0
 66 68  1  0
 60 69  1  6
 62 70  1  6
 71 72  1  0
 72 73  1  6
 71 74  1  1
  2 75  1  6
M  END

> <chembl_id>
CHEMBL2441781

> <chembl_pref_name>
None


$$$$

     RDKit          2D

 70 74  0  0  0  0  0  0  0  0999 V2000
   16.7144  -23.3437    0.0000 C   0  0  0  0  0  0  0  0  0  0  0  0
   16.7144  -22.5210    0.0000 C   0  0  0  0  0  0  0  0  0  0  0  0
   16.0044  -22.1139    0.0000 O   0  0  0  0  0  0  0  0  0  0  0  0
   15.2944  -22.5210    0.0000 C   0  0  0  0  0  0  0  0  0  0  0  0
   15.2944  -23.3437    0.0000 C   0  0  0  0  0  0  0  0  0  0  0  0
   16.0044  -23.7591    0.0000 C   0  0  0  0  0  0  0  0  0  0  0  0
   17.4261  -22.1088    0.0000 O   0  0  0  0  0  0  0  0  0  0  0  0
   14.5827  -22.1088    0.0000 C   0  0  0  0  0  0  0  0  0  0  0  0
   16.0044  -24.5817    0.0000 N   0  0  0  0  0  0  0  0  0  0  0  0
   15.2920  -24.9930    0.0000 C   0  0  0  0  0  0  0  0  0  0  0  0
   16.7168  -24.9930    0.0000 C   0  0  0  0  0  0  0  0  0  0  0  0
   14.5808  -23.7528    0.0000 O   0  0  0  0  0  0  0  0  0  0  0  0
   17.4279  -23.7528    0.0000 O   0  0  0  0  0  0  0  0  0  0  0  0
   15.5376  -16.5735    0.0000 C   0  0  0  0  0  0  0  0  0  0  0  0
   15.5376  -15.7515    0.0000 C   0  0  0  0  0  0  0  0  0  0  0  0
   16.2512  -15.3424    0.0000 C   0  0  0  0  0  0  0  0  0  0  0  0
   16.9648  -15.7556    0.0000 C   0  0  0  0  0  0  0  0  0  0  0  0
   16.9648  -16.5777    0.0000 C   0  0  0  0  0  0  0  0  0  0  0  0
   17.6785  -16.9868    0.0000 C   0  0  0  0  0  0  0  0  0  0  0  0
   17.6785  -17.8088    0.0000 C   0  0  0  0  0  0  0  0  0  0  0  0
   16.9648  -18.2220    0.0000 C   0  0  0  0  0  0  0  0  0  0  0  0
   16.9648  -19.0442    0.0000 C   0  0  0  0  0  0  0  0  0  0  0  0
   16.2512  -19.4573    0.0000 C   0  0  0  0  0  0  0  0  0  0  0  0
   15.5376  -19.0483    0.0000 O   0  0  0  0  0  0  0  0  0  0  0  0
   15.5376  -18.2262    0.0000 C   0  0  0  0  0  0  0  0  0  0  0  0
   16.2530  -20.2837    0.0000 O   0  0  0  0  0  0  0  0  0  0  0  0
   16.2530  -14.5161    0.0000 C   0  0  0  0  0  0  0  0  0  0  0  0
   14.8226  -15.3371    0.0000 O   0  0  0  0  0  0  0  0  0  0  0  0
   17.7619  -16.3607    0.0000 C   0  0  0  0  0  0  0  0  0  0  0  0
   17.3738  -15.8600    0.0000 O   0  0  0  0  0  0  0  0  0  0  0  0
   17.1568  -15.0587    0.0000 C   0  0  0  0  0  0  0  0  0  0  0  0
   18.3921  -16.5694    0.0000 O   0  0  0  0  0  0  0  0  0  0  0  0
   19.1101  -16.9786    0.0000 C   0  0  0  0  0  0  0  0  0  0  0  0
   19.1126  -17.8056    0.0000 O   0  0  0  0  0  0  0  0  0  0  0  0
   19.8263  -18.2148    0.0000 C   0  0  0  0  0  0  0  0  0  0  0  0
   20.5421  -17.8011    0.0000 C   0  0  0  0  0  0  0  0  0  0  0  0
   20.5395  -16.9739    0.0000 C   0  0  0  0  0  0  0  0  0  0  0  0
   19.8211  -16.5601    0.0000 C   0  0  0  0  0  0  0  0  0  0  0  0
   19.8277  -19.0410    0.0000 C   0  0  0  0  0  0  0  0  0  0  0  0
   21.2541  -16.5591    0.0000 N   0  0  0  0  0  0  0  0  0  0  0  0
   21.9707  -16.9708    0.0000 C   0  0  0  0  0  0  0  0  0  0  0  0
   21.2524  -15.7328    0.0000 C   0  0  0  0  0  0  0  0  0  0  0  0
   19.8172  -15.7338    0.0000 O   0  0  0  0  0  0  0  0  0  0  0  0
   18.8929  -16.1771    0.0000 H   0  0  0  0  0  0  0  0  0  0  0  0
   14.6153  -18.6060    0.0000 C   0  0  0  0  0  0  0  0  0  0  0  0
   18.3921  -18.2220    0.0000 C   0  0  0  0  0  0  0  0  0  0  0  0
   17.5490  -18.8063    0.0000 O   0  0  0  0  0  0  0  0  0  0  0  0
   15.1202  -18.9398    0.0000 C   0  0  0  0  0  0  0  0  0  0  0  0
   15.5294  -19.6577    0.0000 C   0  0  0  0  0  0  0  0  0  0  0  0
   16.1666  -18.8308    0.0000 C   0  0  0  0  0  0  0  0  0  0  0  0
   17.5201  -19.6321    0.0000 C   0  0  0  0  0  0  0  0  0  0  0  0
   16.7903  -20.0191    0.0000 O   0  0  0  0  0  0  0  0  0  0  0  0
   16.7595  -20.8412    0.0000 C   0  0  0  0  0  0  0  0  0  0  0  0
   17.4582  -21.2830    0.0000 C   0  0  0  0  0  0  0  0  0  0  0  0
   18.1897  -20.8965    0.0000 C   0  0  0  0  0  0  0  0  0  0  0  0
   18.2224  -20.0681    0.0000 C   0  0  0  0  0  0  0  0  0  0  0  0
   18.4005  -21.6901    0.0000 O   0  0  0  0  0  0  0  0  0  0  0  0
   19.0139  -20.8930    0.0000 C   0  0  0  0  0  0  0  0  0  0  0  0
   19.1983  -21.9056    0.0000 C   0  0  0  0  0  0  0  0  0  0  0  0
   18.2336  -19.2111    0.0000 H   0  0  0  0  0  0  0  0  0  0  0  0
   16.0284  -21.2263    0.0000 C   0  0  0  0  0  0  0  0  0  0  0  0
   14.8278  -17.8043    0.0000 C   0  0  0  0  0  0  0  0  0  0  0  0
   14.8281  -16.9868    0.0000 C   0  0  0  0  0  0  0  0  0  0  0  0
   14.0505  -16.7337    0.0000 O   0  0  0  0  0  0  0  0  0  0  0  0
   13.5697  -17.3950    0.0000 C   0  0  0  0  0  0  0  0  0  0  0  0
   14.0500  -18.0566    0.0000 O   0  0  0  0  0  0  0  0  0  0  0  0
   12.7433  -17.3947    0.0000 O   0  0  0  0  0  0  0  0  0  0  0  0
   14.4150  -16.2711    0.0000 H   0  0  0  0  0  0  0  0  0  0  0  0
   16.4997  -21.7270    0.0000 H   0  0  0  0  0  0  0  0  0  0  0  0
   16.2528  -16.9847    0.0000 C   0  0  0  0  0  0  0  0  0  0  0  0
  1  2  1  0
  1  6  1  0
  2  3  1  0
  3  4  1  0
  4  5  1  0
  5  6  1  0
  2  7  1  0
  4  8  1  1
  6  9  1  1
  9 10  1  0
  9 11  1  0
  5 12  1  6
  1 13  1  6
 63 14  1  0
 14 15  1  0
 15 16  1  0
 16 17  1  0
 17 18  1  0
 18 19  1  0
 19 20  1  0
 20 21  1  0
 21 22  1  0
 22 23  1  0
 23 24  1  0
 24 25  1  0
 25 62  1  0
 23 26  2  0
 16 27  1  6
 15 28  2  0
 18 29  1  0
 18 30  1  6
 30 31  1  0
 19 32  1  6
 32 33  1  0
 33 34  1  0
 33 38  1  0
 34 35  1  0
 35 36  1  0
 36 37  1  0
 37 38  1  0
 35 39  1  1
 37 40  1  1
 40 41  1  0
 40 42  1  0
 38 43  1  6
 33 44  1  6
 62 45  1  6
 20 46  1  1
 21 47  1  1
 25 48  1  1
 48 49  1  0
 22 50  1  1
 47 51  1  0
 51 52  1  0
 51 56  1  0
 52 53  1  0
 53 54  1  0
 54 55  1  0
 55 56  1  0
 54  7  1  1
 55 57  1  1
 55 58  1  0
 57 59  1  0
 51 60  1  6
 53 61  1  6
 62 63  1  0
 63 64  1  0
 64 65  1  0
 65 66  1  0
 66 62  1  0
 65 67  2  0
 63 68  1  1
  2 69  1  6
 14 70  1  6
M  END

> <chembl_id>
CHEMBL2441931

> <chembl_pref_name>
None


$$$$

     RDKit          2D

 70 73  0  0  1  0  0  0  0  0999 V2000
    4.3000  -10.3417    0.0000 C   0  0  0  0  0  0  0  0  0  0  0  0
    1.9417  -11.7792    0.0000 C   0  0  0  0  0  0  0  0  0  0  0  0
    1.2292  -13.0125    0.0000 C   0  0  0  0  0  0  0  0  0  0  0  0
   -0.1833  -11.3750    0.0000 C   0  0  0  0  0  0  0  0  0  0  0  0
    1.9417  -12.6042    0.0000 C   0  0  0  0  0  0  0  0  0  0  0  0
   13.6000   -6.6250    0.0000 N   0  0  0  0  0  0  0  0  0  0  0  0
    2.6750  -10.5667    0.0000 C   0  0  0  0  0  0  0  0  0  0  0  0
    2.6667  -11.3917    0.0000 C   0  0  0  0  0  0  0  0  0  0  0  0
    0.5417  -10.1500    0.0000 C   0  0  0  0  0  0  0  0  0  0  0  0
    4.3000   -9.5167    0.0000 C   0  0  0  0  0  0  0  0  0  0  0  0
    0.5292  -12.6000    0.0000 O   0  0  0  0  0  0  0  0  0  0  0  0
   -0.1750  -10.5542    0.0000 C   0  0  0  0  0  0  0  0  0  0  0  0
    0.5292   -9.3250    0.0000 C   0  0  0  0  0  0  0  0  0  0  0  0
    3.4667  -10.3417    0.0000 O   0  0  0  0  0  0  0  0  0  0  0  0
    4.7125  -12.9125    0.0000 C   0  0  0  0  0  0  0  0  0  0  0  0
    5.0167   -9.1125    0.0000 C   0  0  0  0  0  0  0  0  0  0  0  0
    1.9625  -10.1542    0.0000 C   0  0  0  0  0  0  0  0  0  0  0  0
    3.4792  -12.1917    0.0000 C   0  0  0  0  0  0  0  0  0  0  0  0
    3.8917  -12.9042    0.0000 C   0  0  0  0  0  0  0  0  0  0  0  0
    5.0167  -10.7625    0.0000 O   0  0  0  0  0  0  0  0  0  0  0  0
    3.8917  -11.4792    0.0000 O   0  0  0  0  0  0  0  0  0  0  0  0
    0.5292  -11.7875    0.0000 C   0  0  0  0  0  0  0  0  0  0  0  0
    5.1292  -12.2000    0.0000 C   0  0  0  0  0  0  0  0  0  0  0  0
   12.8792   -7.0292    0.0000 C   0  0  0  0  0  0  0  0  0  0  0  0
    2.6542  -12.1917    0.0000 O   0  0  0  0  0  0  0  0  0  0  0  0
    4.7167  -11.4792    0.0000 C   0  0  0  0  0  0  0  0  0  0  0  0
    5.0167   -8.2792    0.0000 N   0  0  0  0  0  0  0  0  0  0  0  0
   12.1667   -6.6167    0.0000 C   0  0  0  0  0  0  0  0  0  0  0  0
    1.2417   -8.9042    0.0000 C   0  0  0  0  0  0  0  0  0  0  0  0
    1.9625   -9.3250    0.0000 C   0  0  0  0  0  0  0  0  0  0  0  0
    5.7292   -9.5250    0.0000 C   0  0  0  0  0  0  0  0  0  0  0  0
   11.4542   -7.0292    0.0000 C   0  0  0  0  0  0  0  0  0  0  0  0
    5.7292   -7.8667    0.0000 C   0  0  0  0  0  0  0  0  0  0  0  0
   13.6000   -5.8000    0.0000 O   0  0  0  0  0  0  0  0  0  0  0  0
   14.3125   -7.0375    0.0000 O   0  0  0  0  0  0  0  0  0  0  0  0
    7.8875   -8.2750    0.0000 C   0  0  0  0  0  0  0  0  0  0  0  0
    1.2292  -13.8417    0.0000 O   0  0  0  0  0  0  0  0  0  0  0  0
    5.7292  -10.3500    0.0000 C   0  0  0  0  0  0  0  0  0  0  0  0
   -0.1958   -8.9167    0.0000 O   0  0  0  0  0  0  0  0  0  0  0  0
   11.4542   -7.8542    0.0000 C   0  0  0  0  0  0  0  0  0  0  0  0
    7.1667   -7.8542    0.0000 N   0  0  0  0  0  0  0  0  0  0  0  0
   12.8792   -7.8625    0.0000 C   0  0  0  0  0  0  0  0  0  0  0  0
    5.7292   -7.0417    0.0000 O   0  0  0  0  0  0  0  0  0  0  0  0
    7.8875   -9.1000    0.0000 O   0  0  0  0  0  0  0  0  0  0  0  0
   -0.9625  -11.6167    0.0000 O   0  0  0  0  0  0  0  0  0  0  0  0
   12.1667   -8.2667    0.0000 C   0  0  0  0  0  0  0  0  0  0  0  0
    3.5792   -9.1042    0.0000 O   0  0  0  0  0  0  0  0  0  0  0  0
    2.7542   -9.9375    0.0000 O   0  0  0  0  0  0  0  0  0  0  0  0
    6.4500   -8.2750    0.0000 C   0  0  0  0  0  0  0  0  0  0  0  0
   -0.8875  -10.1292    0.0000 O   0  0  0  0  0  0  0  0  0  0  0  0
    5.5292  -12.8042    0.0000 O   0  0  0  0  0  0  0  0  0  0  0  0
    5.9542  -12.2000    0.0000 O   0  0  0  0  0  0  0  0  0  0  0  0
   -0.6000  -12.0792    0.0000 C   0  0  0  0  0  0  0  0  0  0  0  0
    2.6625  -13.0167    0.0000 C   0  0  0  0  0  0  0  0  0  0  0  0
   10.7375   -6.6250    0.0000 O   0  0  0  0  0  0  0  0  0  0  0  0
    3.3750  -11.8250    0.0000 C   0  0  0  0  0  0  0  0  0  0  0  0
   -0.1750   -9.7292    0.0000 C   0  0  0  0  0  0  0  0  0  0  0  0
    4.4917  -13.7042    0.0000 C   0  0  0  0  0  0  0  0  0  0  0  0
    2.3667   -9.4292    0.0000 C   0  0  0  0  0  0  0  0  0  0  0  0
   10.7417   -8.2667    0.0000 O   0  0  0  0  0  0  0  0  0  0  0  0
   -0.0708  -12.3667    0.0000 C   0  0  0  0  0  0  0  0  0  0  0  0
    5.4292  -11.0625    0.0000 C   0  0  0  0  0  0  0  0  0  0  0  0
    1.2417   -8.0792    0.0000 C   0  0  0  0  0  0  0  0  0  0  0  0
    8.6000   -7.8625    0.0000 C   0  0  0  0  0  0  0  0  0  0  0  0
    6.4417  -10.7667    0.0000 C   0  0  0  0  0  0  0  0  0  0  0  0
   10.0292   -7.8542    0.0000 C   0  0  0  0  0  0  0  0  0  0  0  0
    6.0292  -13.4625    0.0000 C   0  0  0  0  0  0  0  0  0  0  0  0
   10.0167   -7.0375    0.0000 C   0  0  0  0  0  0  0  0  0  0  0  0
    9.3167   -8.2667    0.0000 C   0  0  0  0  0  0  0  0  0  0  0  0
    0.1417  -13.1750    0.0000 C   0  0  0  0  0  0  0  0  0  0  0  0
  2  8  1  0
  3  5  1  0
  4 12  1  0
  5  2  1  0
  6 24  1  0
  7 14  1  6
  8  7  1  0
  9 13  1  0
 10  1  1  0
 11  3  1  0
 12  9  1  0
 13 29  1  0
  1 14  1  1
 15 19  1  0
 16 10  1  0
 17  7  1  0
 18 25  1  6
 19 18  1  0
 20  1  1  0
 21 18  1  0
 22 11  1  0
 23 26  1  0
 24 42  1  0
  2 25  1  1
 26 21  1  0
 16 27  1  1
 28 32  1  0
 29 30  1  0
 30 17  1  0
 31 38  1  0
 32 40  2  0
 33 27  1  0
 34  6  1  0
 35  6  2  0
 36 41  1  0
 37  3  2  0
 38 20  1  0
 39 13  2  0
 40 60  1  0
 41 49  1  0
 42 46  2  0
 43 33  2  0
 44 36  2  0
  4 45  1  1
 46 40  1  0
 10 47  1  6
 17 48  1  6
 49 33  1  0
 12 50  1  6
 15 51  1  6
 23 52  1  6
  4 53  1  6
  5 54  1  1
 55 32  1  0
  8 56  1  1
  9 57  1  6
 15 58  1  1
 17 59  1  1
 60 66  1  0
 22 61  1  1
 26 62  1  1
 29 63  1  6
 64 36  1  0
 38 65  1  1
 66 69  1  0
 67 51  1  0
 68 55  1  0
 69 64  1  0
 70 61  1  0
 16 31  1  0
  4 22  1  0
 15 23  1  0
 28 24  2  0
M  CHG  2   6   1  34  -1
M  END

> <chembl_id>
CHEMBL268111

> <chembl_pref_name>
None


$$$$

     RDKit          2D

 71 74  0  0  1  0  0  0  0  0999 V2000
    2.6167   -8.8750    0.0000 C   0  0  0  0  0  0  0  0  0  0  0  0
    0.2625  -10.3125    0.0000 C   0  0  0  0  0  0  0  0  0  0  0  0
   -0.4500  -11.5417    0.0000 C   0  0  0  0  0  0  0  0  0  0  0  0
   -1.8708   -9.9042    0.0000 C   0  0  0  0  0  0  0  0  0  0  0  0
    0.2625  -11.1292    0.0000 C   0  0  0  0  0  0  0  0  0  0  0  0
   14.0292   -8.0792    0.0000 N   0  0  0  0  0  0  0  0  0  0  0  0
    0.9917   -9.1000    0.0000 C   0  0  0  0  0  0  0  0  0  0  0  0
    0.9792   -9.9292    0.0000 C   0  0  0  0  0  0  0  0  0  0  0  0
   -1.1375   -8.6792    0.0000 C   0  0  0  0  0  0  0  0  0  0  0  0
   -1.1583  -11.1292    0.0000 O   0  0  0  0  0  0  0  0  0  0  0  0
   -1.8583   -9.0792    0.0000 C   0  0  0  0  0  0  0  0  0  0  0  0
   -1.1583   -7.8542    0.0000 C   0  0  0  0  0  0  0  0  0  0  0  0
    2.6167   -8.0500    0.0000 C   0  0  0  0  0  0  0  0  0  0  0  0
    1.7875   -8.8750    0.0000 O   0  0  0  0  0  0  0  0  0  0  0  0
    3.0292  -11.4417    0.0000 C   0  0  0  0  0  0  0  0  0  0  0  0
    0.2792   -8.6875    0.0000 C   0  0  0  0  0  0  0  0  0  0  0  0
    1.7917  -10.7250    0.0000 C   0  0  0  0  0  0  0  0  0  0  0  0
    2.2042  -11.4375    0.0000 C   0  0  0  0  0  0  0  0  0  0  0  0
    3.3292   -9.2917    0.0000 O   0  0  0  0  0  0  0  0  0  0  0  0
    2.2042  -10.0042    0.0000 O   0  0  0  0  0  0  0  0  0  0  0  0
   -1.1583  -10.3167    0.0000 C   0  0  0  0  0  0  0  0  0  0  0  0
    3.4417  -10.7292    0.0000 C   0  0  0  0  0  0  0  0  0  0  0  0
    3.3375   -7.6417    0.0000 C   0  0  0  0  0  0  0  0  0  0  0  0
   13.3125   -7.6667    0.0000 C   0  0  0  0  0  0  0  0  0  0  0  0
    0.9667  -10.7250    0.0000 O   0  0  0  0  0  0  0  0  0  0  0  0
    3.0375  -10.0125    0.0000 C   0  0  0  0  0  0  0  0  0  0  0  0
   13.3125   -6.8375    0.0000 C   0  0  0  0  0  0  0  0  0  0  0  0
   -0.4375   -7.4375    0.0000 C   0  0  0  0  0  0  0  0  0  0  0  0
    0.2792   -7.8542    0.0000 C   0  0  0  0  0  0  0  0  0  0  0  0
   12.6000   -6.4250    0.0000 C   0  0  0  0  0  0  0  0  0  0  0  0
    4.0542   -8.0542    0.0000 C   0  0  0  0  0  0  0  0  0  0  0  0
   14.0292   -8.9042    0.0000 O   0  0  0  0  0  0  0  0  0  0  0  0
   14.7417   -7.6667    0.0000 O   0  0  0  0  0  0  0  0  0  0  0  0
    3.3375   -6.8125    0.0000 N   0  0  0  0  0  0  0  0  0  0  0  0
   -0.4500  -12.3750    0.0000 O   0  0  0  0  0  0  0  0  0  0  0  0
    4.0500   -8.8792    0.0000 C   0  0  0  0  0  0  0  0  0  0  0  0
   -1.8750   -7.4500    0.0000 O   0  0  0  0  0  0  0  0  0  0  0  0
   11.8917   -6.8375    0.0000 C   0  0  0  0  0  0  0  0  0  0  0  0
   12.5917   -8.0750    0.0000 C   0  0  0  0  0  0  0  0  0  0  0  0
   -2.6458  -10.1500    0.0000 O   0  0  0  0  0  0  0  0  0  0  0  0
   11.8792   -7.6625    0.0000 C   0  0  0  0  0  0  0  0  0  0  0  0
    1.8917   -7.6375    0.0000 O   0  0  0  0  0  0  0  0  0  0  0  0
    1.0750   -8.4667    0.0000 O   0  0  0  0  0  0  0  0  0  0  0  0
   -2.5708   -8.6667    0.0000 O   0  0  0  0  0  0  0  0  0  0  0  0
    3.8500  -11.3375    0.0000 O   0  0  0  0  0  0  0  0  0  0  0  0
    4.2667  -10.7292    0.0000 O   0  0  0  0  0  0  0  0  0  0  0  0
    4.0542   -6.4000    0.0000 C   0  0  0  0  0  0  0  0  0  0  0  0
   -2.2833  -10.6125    0.0000 C   0  0  0  0  0  0  0  0  0  0  0  0
    0.9792  -11.5500    0.0000 C   0  0  0  0  0  0  0  0  0  0  0  0
   12.6000   -5.6000    0.0000 O   0  0  0  0  0  0  0  0  0  0  0  0
    1.6917  -10.3542    0.0000 C   0  0  0  0  0  0  0  0  0  0  0  0
   -1.8583   -8.2625    0.0000 C   0  0  0  0  0  0  0  0  0  0  0  0
    2.8042  -12.2375    0.0000 C   0  0  0  0  0  0  0  0  0  0  0  0
    0.6792   -7.9625    0.0000 C   0  0  0  0  0  0  0  0  0  0  0  0
   11.1792   -6.4250    0.0000 O   0  0  0  0  0  0  0  0  0  0  0  0
   -1.7500  -10.9000    0.0000 C   0  0  0  0  0  0  0  0  0  0  0  0
    3.7417   -9.5917    0.0000 C   0  0  0  0  0  0  0  0  0  0  0  0
   -0.4375   -6.6125    0.0000 C   0  0  0  0  0  0  0  0  0  0  0  0
    4.7625   -9.3000    0.0000 C   0  0  0  0  0  0  0  0  0  0  0  0
    4.7667   -6.8167    0.0000 C   0  0  0  0  0  0  0  0  0  0  0  0
   10.4667   -6.8292    0.0000 C   0  0  0  0  0  0  0  0  0  0  0  0
    4.3500  -11.9917    0.0000 C   0  0  0  0  0  0  0  0  0  0  0  0
   13.3125   -5.1875    0.0000 C   0  0  0  0  0  0  0  0  0  0  0  0
    5.4792   -6.4042    0.0000 C   0  0  0  0  0  0  0  0  0  0  0  0
    9.7542   -6.4167    0.0000 C   0  0  0  0  0  0  0  0  0  0  0  0
    9.0417   -6.8292    0.0000 C   0  0  0  0  0  0  0  0  0  0  0  0
    6.1917   -6.8167    0.0000 C   0  0  0  0  0  0  0  0  0  0  0  0
    6.9042   -6.4125    0.0000 C   0  0  0  0  0  0  0  0  0  0  0  0
    7.6167   -6.8250    0.0000 C   0  0  0  0  0  0  0  0  0  0  0  0
    8.3292   -6.4167    0.0000 C   0  0  0  0  0  0  0  0  0  0  0  0
   -1.5375  -11.7042    0.0000 C   0  0  0  0  0  0  0  0  0  0  0  0
  2  8  1  0
  3  5  1  0
  4 11  1  0
  5  2  1  0
  6 24  1  0
  7 14  1  6
  8  7  1  0
  9 12  1  0
 10  3  1  0
 11  9  1  0
 12 28  1  0
 13  1  1  0
  1 14  1  1
 15 18  1  0
 16  7  1  0
 17 25  1  6
 18 17  1  0
 19  1  1  0
 20 17  1  0
 21 10  1  0
 22 26  1  0
 23 13  1  0
 24 39  2  0
  2 25  1  1
 26 20  1  0
 27 30  2  0
 28 29  1  0
 29 16  1  0
 30 38  1  0
 31 36  1  0
 32  6  1  0
 33  6  2  0
 23 34  1  1
 35  3  2  0
 36 19  1  0
 37 12  2  0
 38 55  1  0
 39 41  1  0
  4 40  1  1
 41 38  2  0
 13 42  1  6
 16 43  1  6
 11 44  1  6
 15 45  1  6
 22 46  1  6
 47 34  2  0
  4 48  1  6
  5 49  1  1
 50 30  1  0
  8 51  1  1
  9 52  1  6
 15 53  1  1
 16 54  1  1
 55 61  1  0
 21 56  1  1
 26 57  1  1
 28 58  1  6
 36 59  1  1
 60 47  1  0
 61 65  1  0
 62 45  1  0
 63 50  1  0
 64 60  1  0
 65 66  1  0
 66 70  1  0
 67 64  1  0
 68 67  1  0
 69 68  1  0
 70 69  1  0
 71 56  1  0
 23 31  1  0
  4 21  1  0
 15 22  1  0
 27 24  1  0
M  CHG  2   6   1  32  -1
M  END

> <chembl_id>
CHEMBL405432

> <chembl_pref_name>
None


$$$$

     RDKit          2D

 66 69  0  0  1  0  0  0  0  0999 V2000
    6.9417   -2.1500    0.0000 C   0  0  0  0  0  0  0  0  0  0  0  0
    4.5917   -3.5875    0.0000 C   0  0  0  0  0  0  0  0  0  0  0  0
    3.8792   -4.8167    0.0000 C   0  0  0  0  0  0  0  0  0  0  0  0
    2.4625   -3.1792    0.0000 C   0  0  0  0  0  0  0  0  0  0  0  0
    4.5917   -4.4042    0.0000 C   0  0  0  0  0  0  0  0  0  0  0  0
   14.1000   -1.3167    0.0000 N   0  0  0  0  0  0  0  0  0  0  0  0
    5.3167   -2.3750    0.0000 C   0  0  0  0  0  0  0  0  0  0  0  0
    5.3125   -3.2042    0.0000 C   0  0  0  0  0  0  0  0  0  0  0  0
    3.1917   -1.9542    0.0000 C   0  0  0  0  0  0  0  0  0  0  0  0
    6.9417   -1.3250    0.0000 C   0  0  0  0  0  0  0  0  0  0  0  0
    3.1750   -4.4042    0.0000 O   0  0  0  0  0  0  0  0  0  0  0  0
    2.4667   -2.3542    0.0000 C   0  0  0  0  0  0  0  0  0  0  0  0
    3.1750   -1.1292    0.0000 C   0  0  0  0  0  0  0  0  0  0  0  0
    6.1167   -2.1500    0.0000 O   0  0  0  0  0  0  0  0  0  0  0  0
    7.3542   -4.7167    0.0000 C   0  0  0  0  0  0  0  0  0  0  0  0
    7.6667   -0.9167    0.0000 C   0  0  0  0  0  0  0  0  0  0  0  0
    4.6042   -1.9625    0.0000 C   0  0  0  0  0  0  0  0  0  0  0  0
    6.1250   -4.0000    0.0000 C   0  0  0  0  0  0  0  0  0  0  0  0
    6.5375   -4.7125    0.0000 C   0  0  0  0  0  0  0  0  0  0  0  0
    7.6625   -2.5667    0.0000 O   0  0  0  0  0  0  0  0  0  0  0  0
    6.5375   -3.2792    0.0000 O   0  0  0  0  0  0  0  0  0  0  0  0
    3.1750   -3.5917    0.0000 C   0  0  0  0  0  0  0  0  0  0  0  0
    7.7750   -4.0042    0.0000 C   0  0  0  0  0  0  0  0  0  0  0  0
   13.3792   -0.9125    0.0000 C   0  0  0  0  0  0  0  0  0  0  0  0
    5.3000   -4.0000    0.0000 O   0  0  0  0  0  0  0  0  0  0  0  0
    7.3667   -3.2875    0.0000 C   0  0  0  0  0  0  0  0  0  0  0  0
    7.6667   -0.0875    0.0000 N   0  0  0  0  0  0  0  0  0  0  0  0
   12.6667   -1.3250    0.0000 C   0  0  0  0  0  0  0  0  0  0  0  0
    3.8917   -0.7125    0.0000 C   0  0  0  0  0  0  0  0  0  0  0  0
    4.6042   -1.1292    0.0000 C   0  0  0  0  0  0  0  0  0  0  0  0
    8.3792   -1.3292    0.0000 C   0  0  0  0  0  0  0  0  0  0  0  0
   11.9542   -0.9125    0.0000 C   0  0  0  0  0  0  0  0  0  0  0  0
    8.3875    0.3333    0.0000 C   0  0  0  0  0  0  0  0  0  0  0  0
   14.1000   -2.1417    0.0000 O   0  0  0  0  0  0  0  0  0  0  0  0
   14.8125   -0.9042    0.0000 O   0  0  0  0  0  0  0  0  0  0  0  0
    3.8792   -5.6500    0.0000 O   0  0  0  0  0  0  0  0  0  0  0  0
    8.3792   -2.1542    0.0000 C   0  0  0  0  0  0  0  0  0  0  0  0
    2.4542   -0.7250    0.0000 O   0  0  0  0  0  0  0  0  0  0  0  0
   11.9542   -0.0875    0.0000 C   0  0  0  0  0  0  0  0  0  0  0  0
   13.3792   -0.0792    0.0000 C   0  0  0  0  0  0  0  0  0  0  0  0
    8.3875    1.1583    0.0000 O   0  0  0  0  0  0  0  0  0  0  0  0
    1.6792   -3.4250    0.0000 O   0  0  0  0  0  0  0  0  0  0  0  0
   12.6667    0.3250    0.0000 C   0  0  0  0  0  0  0  0  0  0  0  0
    6.2250   -0.9125    0.0000 O   0  0  0  0  0  0  0  0  0  0  0  0
    5.4042   -1.7417    0.0000 O   0  0  0  0  0  0  0  0  0  0  0  0
    1.7625   -1.9417    0.0000 O   0  0  0  0  0  0  0  0  0  0  0  0
    8.1792   -4.6125    0.0000 O   0  0  0  0  0  0  0  0  0  0  0  0
    8.6000   -4.0042    0.0000 O   0  0  0  0  0  0  0  0  0  0  0  0
    2.0417   -3.8875    0.0000 C   0  0  0  0  0  0  0  0  0  0  0  0
    5.3042   -4.8250    0.0000 C   0  0  0  0  0  0  0  0  0  0  0  0
   11.2375   -1.3167    0.0000 O   0  0  0  0  0  0  0  0  0  0  0  0
    6.0250   -3.6292    0.0000 C   0  0  0  0  0  0  0  0  0  0  0  0
    2.4667   -1.5375    0.0000 C   0  0  0  0  0  0  0  0  0  0  0  0
    7.1375   -5.5125    0.0000 C   0  0  0  0  0  0  0  0  0  0  0  0
    5.0125   -1.2375    0.0000 C   0  0  0  0  0  0  0  0  0  0  0  0
   11.2417    0.3250    0.0000 O   0  0  0  0  0  0  0  0  0  0  0  0
    2.5792   -4.1750    0.0000 C   0  0  0  0  0  0  0  0  0  0  0  0
    8.0750   -2.8667    0.0000 C   0  0  0  0  0  0  0  0  0  0  0  0
    3.8917    0.1125    0.0000 C   0  0  0  0  0  0  0  0  0  0  0  0
    9.1000   -0.0792    0.0000 C   0  0  0  0  0  0  0  0  0  0  0  0
    9.0917   -2.5750    0.0000 C   0  0  0  0  0  0  0  0  0  0  0  0
   10.5292   -0.0875    0.0000 C   0  0  0  0  0  0  0  0  0  0  0  0
    8.6792   -5.2667    0.0000 C   0  0  0  0  0  0  0  0  0  0  0  0
   10.5167   -0.9042    0.0000 C   0  0  0  0  0  0  0  0  0  0  0  0
    9.8167    0.3250    0.0000 C   0  0  0  0  0  0  0  0  0  0  0  0
    2.7917   -4.9792    0.0000 C   0  0  0  0  0  0  0  0  0  0  0  0
  2  8  1  0
  3  5  1  0
  4 12  1  0
  5  2  1  0
  6 24  1  0
  7 14  1  6
  8  7  1  0
  9 13  1  0
 10  1  1  0
 11  3  1  0
 12  9  1  0
 13 29  1  0
  1 14  1  1
 15 19  1  0
 16 10  1  0
 17  7  1  0
 18 25  1  6
 19 18  1  0
 20  1  1  0
 21 18  1  0
 22 11  1  0
 23 26  1  0
 24 40  1  0
  2 25  1  1
 26 21  1  0
 16 27  1  1
 28 32  1  0
 29 30  1  0
 30 17  1  0
 31 37  1  0
 32 39  2  0
 33 27  1  0
 34  6  1  0
 35  6  2  0
 36  3  2  0
 37 20  1  0
 38 13  2  0
 39 56  1  0
 40 43  2  0
 41 33  2  0
  4 42  1  1
 43 39  1  0
 10 44  1  6
 17 45  1  6
 12 46  1  6
 15 47  1  6
 23 48  1  6
  4 49  1  6
  5 50  1  1
 51 32  1  0
  8 52  1  1
  9 53  1  6
 15 54  1  1
 17 55  1  1
 56 62  1  0
 22 57  1  1
 26 58  1  1
 29 59  1  6
 60 33  1  0
 37 61  1  1
 62 65  1  0
 63 47  1  0
 64 51  1  0
 65 60  1  0
 66 57  1  0
 16 31  1  0
 22  4  1  0
 15 23  1  0
 28 24  2  0
M  CHG  2   6   1  34  -1
M  END

> <chembl_id>
CHEMBL430597

> <chembl_pref_name>
None


$$$$

     RDKit          2D

 48 51  0  0  0  0  0  0  0  0999 V2000
    7.4367  -10.8445    0.0000 C   0  0  0  0  0  0  0  0  0  0  0  0
    6.7251  -11.2918    0.0000 C   0  0  0  0  0  0  0  0  0  0  0  0
    8.1317  -11.2810    0.0000 C   0  0  0  0  0  0  0  0  0  0  0  0
    6.8309  -12.1132    0.0000 C   0  0  0  0  0  0  0  0  0  0  0  0
    8.1416  -11.9861    0.0000 C   0  0  0  0  0  0  0  0  0  0  0  0
    6.0720  -12.4477    0.0000 C   0  0  0  0  0  0  0  0  0  0  0  0
    8.7813  -12.4286    0.0000 C   0  0  0  0  0  0  0  0  0  0  0  0
    6.0787  -13.2772    0.0000 C   0  0  0  0  0  0  0  0  0  0  0  0
    8.7870  -13.2537    0.0000 C   0  0  0  0  0  0  0  0  0  0  0  0
    6.8450  -13.5986    0.0000 O   0  0  0  0  0  0  0  0  0  0  0  0
    8.0205  -13.5944    0.0000 C   0  0  0  0  0  0  0  0  0  0  0  0
    6.8597  -14.3520    0.0000 C   0  0  0  0  0  0  0  0  0  0  0  0
    8.1390  -14.4015    0.0000 C   0  0  0  0  0  0  0  0  0  0  0  0
    7.4384  -14.8522    0.0000 C   0  0  0  0  0  0  0  0  0  0  0  0
    7.4354  -10.0147    0.0000 O   0  0  0  0  0  0  0  0  0  0  0  0
    5.9832  -10.9454    0.0000 C   0  0  0  0  0  0  0  0  0  0  0  0
    9.5763  -12.6414    0.0000 C   0  0  0  0  0  0  0  0  0  0  0  0
    9.4741  -13.7017    0.0000 O   0  0  0  0  0  0  0  0  0  0  0  0
    8.8869  -14.7498    0.0000 O   0  0  0  0  0  0  0  0  0  0  0  0
    7.3052  -13.1892    0.0000 C   0  0  0  0  0  0  0  0  0  0  0  0
    7.4421  -15.6800    0.0000 C   0  0  0  0  0  0  0  0  0  0  0  0
    5.9929  -14.7663    0.0000 O   0  0  0  0  0  0  0  0  0  0  0  0
    5.3892  -13.7427    0.0000 C   0  0  0  0  0  0  0  0  0  0  0  0
    4.6522  -13.3718    0.0000 C   0  0  0  0  0  0  0  0  0  0  0  0
    7.4789  -11.6394    0.0000 N   0  0  0  0  0  0  0  0  0  0  0  0
   10.2936  -13.7203    0.0000 C   0  0  0  0  0  0  0  0  0  0  0  0
   10.6890  -14.4375    0.0000 O   0  0  0  0  0  0  0  0  0  0  0  0
   11.5052  -14.4604    0.0000 C   0  0  0  0  0  0  0  0  0  0  0  0
   11.9310  -13.7582    0.0000 C   0  0  0  0  0  0  0  0  0  0  0  0
   11.5357  -13.0410    0.0000 C   0  0  0  0  0  0  0  0  0  0  0  0
   10.7122  -13.0173    0.0000 C   0  0  0  0  0  0  0  0  0  0  0  0
   11.9042  -15.1817    0.0000 C   0  0  0  0  0  0  0  0  0  0  0  0
   11.9623  -12.3380    0.0000 N   0  0  0  0  0  0  0  0  0  0  0  0
   12.7873  -12.3542    0.0000 C   0  0  0  0  0  0  0  0  0  0  0  0
   11.5644  -11.6111    0.0000 C   0  0  0  0  0  0  0  0  0  0  0  0
    9.7753  -14.5755    0.0000 H   0  0  0  0  0  0  0  0  0  0  0  0
    5.3797  -11.9932    0.0000 O   0  0  0  0  0  0  0  0  0  0  0  0
    5.3770  -11.1783    0.0000 C   0  0  0  0  0  0  0  0  0  0  0  0
    4.8733  -10.5195    0.0000 O   0  0  0  0  0  0  0  0  0  0  0  0
    5.2642  -12.6248    0.0000 C   0  0  0  0  0  0  0  0  0  0  0  0
    8.3109  -10.8319    0.0000 C   0  0  0  0  0  0  0  0  0  0  0  0
    8.2958   -9.9770    0.0000 C   0  0  0  0  0  0  0  0  0  0  0  0
    9.1657  -10.8169    0.0000 C   0  0  0  0  0  0  0  0  0  0  0  0
    9.1504   -9.9624    0.0000 N   0  0  0  0  0  0  0  0  0  0  0  0
    8.9857  -11.2786    0.0000 C   0  0  0  0  0  0  0  0  0  0  0  0
    9.1844  -11.7108    0.0000 O   0  0  0  0  0  0  0  0  0  0  0  0
   10.3156  -12.3019    0.0000 O   0  0  0  0  0  0  0  0  0  0  0  0
    7.2255  -11.1944    0.0000 H   0  0  0  0  0  0  0  0  0  0  0  0
  6  8  1  0
  7  9  1  0
  8 10  1  0
  9 11  1  0
 10 12  1  0
 11 13  1  0
 12 14  1  0
 13 14  1  0
  1 15  2  0
  2 16  1  1
  7 17  1  6
  9 18  1  6
 13 19  2  0
 11 20  1  6
 14 21  1  1
 12 22  2  0
  8 23  1  6
 23 24  1  0
  4 25  1  0
 26 18  1  0
 26 27  1  0
 26 31  1  0
 27 28  1  0
 28 29  1  0
 29 30  1  0
 30 31  1  0
 28 32  1  1
 30 33  1  1
 33 34  1  0
 33 35  1  0
 26 36  1  6
  6 37  1  0
 37 38  1  0
 25 38  1  0
 38 39  2  0
  6 40  1  6
 25 41  1  0
 42 41  1  0
  1  2  1  0
  1  3  1  0
  2  4  1  0
 41 43  1  0
 43 44  1  0
 44 42  1  0
  3  5  1  0
  3 45  1  6
  4  6  1  0
  5  7  1  0
  7 46  1  0
 31 47  1  6
  4 48  1  6
M  END

> <chembl_id>
CHEMBL572740

> <chembl_pref_name>
None


$$$$

     RDKit          2D

 88 93  0  0  0  0  0  0  0  0999 V2000
    4.0246   -3.8297    0.0000 C   0  0  0  0  0  0  0  0  0  0  0  0
    3.3132   -3.4119    0.0000 C   0  0  0  0  0  0  0  0  0  0  0  0
    3.3216   -2.5912    0.0000 O   0  0  0  0  0  0  0  0  0  0  0  0
    4.0342   -2.1840    0.0000 C   0  0  0  0  0  0  0  0  0  0  0  0
    4.7457   -2.6017    0.0000 C   0  0  0  0  0  0  0  0  0  0  0  0
    4.7444   -3.4267    0.0000 C   0  0  0  0  0  0  0  0  0  0  0  0
    5.4559   -3.8444    0.0000 O   0  0  0  0  0  0  0  0  0  0  0  0
    4.0161   -4.6546    0.0000 O   0  0  0  0  0  0  0  0  0  0  0  0
    5.4620   -2.1924    0.0000 O   0  0  0  0  0  0  0  0  0  0  0  0
    4.0391   -1.3589    0.0000 C   0  0  0  0  0  0  0  0  0  0  0  0
    3.3271   -0.9423    0.0000 O   0  0  0  0  0  0  0  0  0  0  0  0
    2.5951   -3.8181    0.0000 O   0  0  0  0  0  0  0  0  0  0  0  0
   -0.9667    0.7375    0.0000 C   0  0  0  0  0  0  0  0  0  0  0  0
   -1.6829    1.1542    0.0000 C   0  0  0  0  0  0  0  0  0  0  0  0
   -2.4032    0.7375    0.0000 C   0  0  0  0  0  0  0  0  0  0  0  0
   -1.6829    1.9833    0.0000 C   0  0  0  0  0  0  0  0  0  0  0  0
   -2.4032   -0.0917    0.0000 C   0  0  0  0  0  0  0  0  0  0  0  0
   -3.1194    1.1542    0.0000 O   0  0  0  0  0  0  0  0  0  0  0  0
   -0.9667   -0.0917    0.0000 C   0  0  0  0  0  0  0  0  0  0  0  0
   -0.2463   -0.5042    0.0000 C   0  0  0  0  0  0  0  0  0  0  0  0
   -0.9584   -0.9167    0.0000 O   0  0  0  0  0  0  0  0  0  0  0  0
   -1.6766   -1.3328    0.0000 C   0  0  0  0  0  0  0  0  0  0  0  0
    0.4736   -0.0901    0.0000 O   0  0  0  0  0  0  0  0  0  0  0  0
   -0.2463   -1.3333    0.0000 C   0  0  0  0  0  0  0  0  0  0  0  0
   -0.9667   -1.7500    0.0000 C   0  0  0  0  0  0  0  0  0  0  0  0
   -0.9667   -2.5792    0.0000 C   0  0  0  0  0  0  0  0  0  0  0  0
   -1.6829   -2.9958    0.0000 C   0  0  0  0  0  0  0  0  0  0  0  0
   -1.6829   -3.8250    0.0000 O   0  0  0  0  0  0  0  0  0  0  0  0
   -2.4032   -1.7500    0.0000 C   0  0  0  0  0  0  0  0  0  0  0  0
   -2.4032   -2.5792    0.0000 O   0  0  0  0  0  0  0  0  0  0  0  0
   -3.1125   -2.1583    0.0000 C   0  0  0  0  0  0  0  0  0  0  0  0
   -3.1127   -2.9875    0.0000 C   0  0  0  0  0  0  0  0  0  0  0  0
   -3.1236   -0.5014    0.0000 C   0  0  0  0  0  0  0  0  0  0  0  0
   -3.1194   -1.3333    0.0000 C   0  0  0  0  0  0  0  0  0  0  0  0
   -3.9090   -1.5949    0.0000 O   0  0  0  0  0  0  0  0  0  0  0  0
   -3.9195   -0.2484    0.0000 O   0  0  0  0  0  0  0  0  0  0  0  0
   -1.6901   -0.5065    0.0000 C   0  0  0  0  0  0  0  0  0  0  0  0
   -0.2542   -2.1625    0.0000 O   0  0  0  0  0  0  0  0  0  0  0  0
    0.4583   -2.5750    0.0000 C   0  0  0  0  0  0  0  0  0  0  0  0
    0.4553   -3.3992    0.0000 C   0  0  0  0  0  0  0  0  0  0  0  0
    1.1637   -3.8116    0.0000 C   0  0  0  0  0  0  0  0  0  0  0  0
    1.8796   -3.4044    0.0000 C   0  0  0  0  0  0  0  0  0  0  0  0
    1.8826   -2.5801    0.0000 C   0  0  0  0  0  0  0  0  0  0  0  0
    1.1697   -2.1632    0.0000 O   0  0  0  0  0  0  0  0  0  0  0  0
    2.5990   -2.1709    0.0000 C   0  0  0  0  0  0  0  0  0  0  0  0
    0.7458   -4.5208    0.0000 C   0  0  0  0  0  0  0  0  0  0  0  0
    1.5708   -4.5208    0.0000 O   0  0  0  0  0  0  0  0  0  0  0  0
    2.3958   -4.5229    0.0000 C   0  0  0  0  0  0  0  0  0  0  0  0
    0.8726    0.6294    0.0000 C   0  0  0  0  0  0  0  0  0  0  0  0
    1.6960    0.6416    0.0000 O   0  0  0  0  0  0  0  0  0  0  0  0
    2.0950    1.3568    0.0000 C   0  0  0  0  0  0  0  0  0  0  0  0
    1.6750    2.0646    0.0000 C   0  0  0  0  0  0  0  0  0  0  0  0
    0.8515    2.0523    0.0000 C   0  0  0  0  0  0  0  0  0  0  0  0
    0.4480    1.3324    0.0000 C   0  0  0  0  0  0  0  0  0  0  0  0
    2.9200    1.3680    0.0000 C   0  0  0  0  0  0  0  0  0  0  0  0
    0.4291    2.7610    0.0000 N   0  0  0  0  0  0  0  0  0  0  0  0
    0.8317    3.4812    0.0000 C   0  0  0  0  0  0  0  0  0  0  0  0
   -0.3958    2.7497    0.0000 C   0  0  0  0  0  0  0  0  0  0  0  0
   -0.3768    1.3191    0.0000 O   0  0  0  0  0  0  0  0  0  0  0  0
   -0.2515   -2.9905    0.0000 C   0  0  0  0  0  0  0  0  0  0  0  0
    0.5750   -1.3333    0.0000 C   0  0  0  0  0  0  0  0  0  0  0  0
   -3.7895   -0.8520    0.0000 C   0  0  0  0  0  0  0  0  0  0  0  0
   -1.6864    0.3116    0.0000 C   0  0  0  0  0  0  0  0  0  0  0  0
    1.2884   -0.0832    0.0000 H   0  0  0  0  0  0  0  0  0  0  0  0
    0.4542   -1.7500    0.0000 H   0  0  0  0  0  0  0  0  0  0  0  0
    3.3083   -4.2333    0.0000 H   0  0  0  0  0  0  0  0  0  0  0  0
    4.7263   -5.0745    0.0000 C   0  0  0  0  0  0  0  0  0  0  0  0
    4.7178   -5.8994    0.0000 C   0  0  0  0  0  0  0  0  0  0  0  0
    5.4450   -4.6694    0.0000 O   0  0  0  0  0  0  0  0  0  0  0  0
    6.1734   -3.4372    0.0000 C   0  0  0  0  0  0  0  0  0  0  0  0
    6.8848   -3.8549    0.0000 C   0  0  0  0  0  0  0  0  0  0  0  0
    6.1794   -2.6122    0.0000 O   0  0  0  0  0  0  0  0  0  0  0  0
    5.4656   -1.3674    0.0000 C   0  0  0  0  0  0  0  0  0  0  0  0
    6.1819   -0.9580    0.0000 C   0  0  0  0  0  0  0  0  0  0  0  0
    4.7530   -0.9517    0.0000 O   0  0  0  0  0  0  0  0  0  0  0  0
    6.8893   -1.3770    0.0000 C   0  0  0  0  0  0  0  0  0  0  0  0
    7.6051   -0.9684    0.0000 C   0  0  0  0  0  0  0  0  0  0  0  0
    7.6092   -0.1425    0.0000 C   0  0  0  0  0  0  0  0  0  0  0  0
    6.8916    0.2730    0.0000 C   0  0  0  0  0  0  0  0  0  0  0  0
    6.1787   -0.1380    0.0000 C   0  0  0  0  0  0  0  0  0  0  0  0
    3.3319   -0.1173    0.0000 C   0  0  0  0  0  0  0  0  0  0  0  0
    2.6199    0.2994    0.0000 O   0  0  0  0  0  0  0  0  0  0  0  0
    4.0488    0.2910    0.0000 C   0  0  0  0  0  0  0  0  0  0  0  0
    4.7604   -0.1272    0.0000 C   0  0  0  0  0  0  0  0  0  0  0  0
    5.4768    0.2804    0.0000 C   0  0  0  0  0  0  0  0  0  0  0  0
    5.4821    1.1063    0.0000 C   0  0  0  0  0  0  0  0  0  0  0  0
    4.7650    1.5228    0.0000 C   0  0  0  0  0  0  0  0  0  0  0  0
    4.0515    1.1128    0.0000 C   0  0  0  0  0  0  0  0  0  0  0  0
 21 22  1  0
 43 45  1  1
 10 11  1  0
 41 46  1  1
 20 23  1  6
 41 47  1  0
  4  5  1  0
 47 48  1  0
 42 12  1  6
 20 24  1  0
 23 49  1  0
 49 50  1  0
  2 12  1  0
 24 25  1  0
  5  6  1  0
 25 26  1  0
 49 54  1  0
 50 51  1  0
 51 52  1  0
 52 53  1  0
 53 54  1  0
 26 27  1  0
 51 55  1  1
 13 14  1  0
 53 56  1  1
 27 28  2  0
 56 57  1  0
 27 30  1  0
 56 58  1  0
  6  7  1  6
 54 59  1  6
 34 29  1  0
 14 15  1  0
 29 30  1  0
 26 60  1  1
  1  2  1  0
 24 61  1  1
 29 31  1  1
 14 16  1  6
 34 62  1  0
 31 32  1  0
 19 63  1  0
 49 64  1  6
 33 34  1  0
 39 65  1  1
  1  8  1  1
  2 66  1  1
 15 17  1  0
  8 67  1  0
  1  6  1  0
 67 68  1  0
 15 18  2  0
 67 69  2  0
 34 35  1  1
  7 70  1  0
 33 36  1  6
 70 71  1  0
 17 33  1  0
 70 72  2  0
 17 37  1  6
  9 73  1  0
  5  9  1  1
 73 74  1  0
 25 38  1  1
 73 75  2  0
 13 19  1  0
 74 76  2  0
 38 39  1  0
 76 77  1  0
 39 40  1  0
 77 78  2  0
  2  3  1  0
 78 79  1  0
 19 20  1  0
 79 80  2  0
 80 74  1  0
  4 10  1  6
 11 81  1  0
 19 21  1  6
 81 82  2  0
  3  4  1  0
 81 83  1  0
 39 44  1  0
 83 84  2  0
 40 41  1  0
 84 85  1  0
 41 42  1  0
 85 86  2  0
 42 43  1  0
 86 87  1  0
 43 44  1  0
 87 88  2  0
 88 83  1  0
M  END

> <chembl_id>
CHEMBL1224600

> <chembl_pref_name>
None


$$$$

     RDKit          2D

 83 87  0  0  0  0  0  0  0  0999 V2000
    2.0924   -4.0709    0.0000 C   0  0  0  0  0  0  0  0  0  0  0  0
    2.1014   -3.2459    0.0000 C   0  0  0  0  0  0  0  0  0  0  0  0
    2.8178   -2.8454    0.0000 O   0  0  0  0  0  0  0  0  0  0  0  0
    3.5253   -3.2615    0.0000 C   0  0  0  0  0  0  0  0  0  0  0  0
    3.5163   -4.0865    0.0000 C   0  0  0  0  0  0  0  0  0  0  0  0
    2.7998   -4.4953    0.0000 C   0  0  0  0  0  0  0  0  0  0  0  0
    2.7907   -5.3202    0.0000 O   0  0  0  0  0  0  0  0  0  0  0  0
    1.3722   -4.4734    0.0000 O   0  0  0  0  0  0  0  0  0  0  0  0
    4.2275   -4.5047    0.0000 O   0  0  0  0  0  0  0  0  0  0  0  0
    4.2437   -2.8558    0.0000 C   0  0  0  0  0  0  0  0  0  0  0  0
    1.3921   -2.8246    0.0000 O   0  0  0  0  0  0  0  0  0  0  0  0
   -2.1667    1.7333    0.0000 C   0  0  0  0  0  0  0  0  0  0  0  0
   -2.8829    2.1500    0.0000 C   0  0  0  0  0  0  0  0  0  0  0  0
   -3.6032    1.7333    0.0000 C   0  0  0  0  0  0  0  0  0  0  0  0
   -2.8829    2.9792    0.0000 C   0  0  0  0  0  0  0  0  0  0  0  0
   -3.6032    0.9042    0.0000 C   0  0  0  0  0  0  0  0  0  0  0  0
   -4.3194    2.1500    0.0000 O   0  0  0  0  0  0  0  0  0  0  0  0
   -2.1667    0.9042    0.0000 C   0  0  0  0  0  0  0  0  0  0  0  0
   -1.4463    0.4917    0.0000 C   0  0  0  0  0  0  0  0  0  0  0  0
   -2.1583    0.0792    0.0000 O   0  0  0  0  0  0  0  0  0  0  0  0
   -2.8766   -0.3370    0.0000 C   0  0  0  0  0  0  0  0  0  0  0  0
   -0.7260    0.9042    0.0000 O   0  0  0  0  0  0  0  0  0  0  0  0
   -1.4463   -0.3375    0.0000 C   0  0  0  0  0  0  0  0  0  0  0  0
   -2.1667   -0.7542    0.0000 C   0  0  0  0  0  0  0  0  0  0  0  0
   -2.1667   -1.5833    0.0000 C   0  0  0  0  0  0  0  0  0  0  0  0
   -2.8829   -2.0000    0.0000 C   0  0  0  0  0  0  0  0  0  0  0  0
   -2.8829   -2.8292    0.0000 O   0  0  0  0  0  0  0  0  0  0  0  0
   -3.6032   -0.7542    0.0000 C   0  0  0  0  0  0  0  0  0  0  0  0
   -3.6032   -1.5833    0.0000 O   0  0  0  0  0  0  0  0  0  0  0  0
   -4.3125   -1.1625    0.0000 C   0  0  0  0  0  0  0  0  0  0  0  0
   -4.3127   -1.9917    0.0000 C   0  0  0  0  0  0  0  0  0  0  0  0
   -4.3236    0.4944    0.0000 C   0  0  0  0  0  0  0  0  0  0  0  0
   -4.3194   -0.3375    0.0000 C   0  0  0  0  0  0  0  0  0  0  0  0
   -5.1090   -0.5991    0.0000 O   0  0  0  0  0  0  0  0  0  0  0  0
   -5.1195    0.7474    0.0000 O   0  0  0  0  0  0  0  0  0  0  0  0
   -5.0375    0.0750    0.0000 C   0  0  0  0  0  0  0  0  0  0  0  0
   -2.8901    0.4894    0.0000 C   0  0  0  0  0  0  0  0  0  0  0  0
   -2.8833    1.3167    0.0000 C   0  0  0  0  0  0  0  0  0  0  0  0
   -1.4542   -1.1667    0.0000 O   0  0  0  0  0  0  0  0  0  0  0  0
   -0.7417   -1.5792    0.0000 C   0  0  0  0  0  0  0  0  0  0  0  0
   -0.7446   -2.4034    0.0000 C   0  0  0  0  0  0  0  0  0  0  0  0
   -0.0362   -2.8158    0.0000 C   0  0  0  0  0  0  0  0  0  0  0  0
    0.6797   -2.4085    0.0000 C   0  0  0  0  0  0  0  0  0  0  0  0
    0.6826   -1.5843    0.0000 C   0  0  0  0  0  0  0  0  0  0  0  0
   -0.0303   -1.1673    0.0000 O   0  0  0  0  0  0  0  0  0  0  0  0
    1.3990   -1.1751    0.0000 C   0  0  0  0  0  0  0  0  0  0  0  0
   -0.4542   -3.5250    0.0000 C   0  0  0  0  0  0  0  0  0  0  0  0
    0.3708   -3.5250    0.0000 O   0  0  0  0  0  0  0  0  0  0  0  0
    1.1958   -3.5271    0.0000 C   0  0  0  0  0  0  0  0  0  0  0  0
   -0.0167    1.3208    0.0000 C   0  0  0  0  0  0  0  0  0  0  0  0
    0.6987    0.9127    0.0000 O   0  0  0  0  0  0  0  0  0  0  0  0
    1.4059    1.3259    0.0000 C   0  0  0  0  0  0  0  0  0  0  0  0
    1.4039    2.1488    0.0000 C   0  0  0  0  0  0  0  0  0  0  0  0
    0.6886    2.5570    0.0000 C   0  0  0  0  0  0  0  0  0  0  0  0
   -0.0248    2.1421    0.0000 C   0  0  0  0  0  0  0  0  0  0  0  0
    2.1219    0.9160    0.0000 C   0  0  0  0  0  0  0  0  0  0  0  0
    0.6852    3.3820    0.0000 N   0  0  0  0  0  0  0  0  0  0  0  0
    1.3979    3.7974    0.0000 C   0  0  0  0  0  0  0  0  0  0  0  0
   -0.0310    3.7915    0.0000 C   0  0  0  0  0  0  0  0  0  0  0  0
   -0.7420    2.5499    0.0000 O   0  0  0  0  0  0  0  0  0  0  0  0
    0.5623    1.9086    0.0000 H   0  0  0  0  0  0  0  0  0  0  0  0
    0.0550   -1.7936    0.0000 H   0  0  0  0  0  0  0  0  0  0  0  0
   -1.4515   -1.9946    0.0000 C   0  0  0  0  0  0  0  0  0  0  0  0
   -0.6250   -0.3375    0.0000 C   0  0  0  0  0  0  0  0  0  0  0  0
    1.8983   -2.4463    0.0000 H   0  0  0  0  0  0  0  0  0  0  0  0
    1.3608   -5.2983    0.0000 C   0  0  0  0  0  0  0  0  0  0  0  0
    0.6407   -5.7009    0.0000 C   0  0  0  0  0  0  0  0  0  0  0  0
    2.0695   -5.7207    0.0000 O   0  0  0  0  0  0  0  0  0  0  0  0
    4.2515   -2.0308    0.0000 O   0  0  0  0  0  0  0  0  0  0  0  0
    4.9699   -1.6251    0.0000 C   0  0  0  0  0  0  0  0  0  0  0  0
    5.6804   -2.0444    0.0000 C   0  0  0  0  0  0  0  0  0  0  0  0
    4.9777   -0.8002    0.0000 O   0  0  0  0  0  0  0  0  0  0  0  0
    4.9452   -4.0979    0.0000 C   0  0  0  0  0  0  0  0  0  0  0  0
    5.6563   -4.5161    0.0000 C   0  0  0  0  0  0  0  0  0  0  0  0
    4.9518   -3.2729    0.0000 O   0  0  0  0  0  0  0  0  0  0  0  0
    5.6448   -5.3385    0.0000 C   0  0  0  0  0  0  0  0  0  0  0  0
    6.3551   -5.7566    0.0000 C   0  0  0  0  0  0  0  0  0  0  0  0
    7.0738   -5.3498    0.0000 C   0  0  0  0  0  0  0  0  0  0  0  0
    7.0778   -4.5206    0.0000 C   0  0  0  0  0  0  0  0  0  0  0  0
    6.3669   -4.1062    0.0000 C   0  0  0  0  0  0  0  0  0  0  0  0
    3.5007   -5.7405    0.0000 C   0  0  0  0  0  0  0  0  0  0  0  0
    3.4916   -6.5655    0.0000 C   0  0  0  0  0  0  0  0  0  0  0  0
    4.2196   -5.3359    0.0000 O   0  0  0  0  0  0  0  0  0  0  0  0
  4 10  1  6
 20 21  1  0
  3  4  1  0
 19 22  1  6
 40 45  1  0
 41 42  1  0
 42 43  1  0
 43 44  1  0
 44 45  1  0
  2 11  1  0
 44 46  1  1
 19 23  1  0
 42 47  1  1
  4  5  1  0
 42 48  1  0
 23 24  1  0
 48 49  1  0
 43 11  1  6
  5  6  1  0
 22 50  1  0
 50 51  1  0
 24 25  1  0
 12 13  1  0
 25 26  1  0
 26 27  2  0
 50 55  1  0
 51 52  1  0
 52 53  1  0
 53 54  1  0
 54 55  1  0
 26 29  1  0
 52 56  1  1
 13 14  1  0
 54 57  1  1
 33 28  1  0
 57 58  1  0
  6  7  1  6
 57 59  1  0
 28 29  1  0
 55 60  1  6
 13 15  1  6
 50 61  1  6
 28 30  1  1
 40 62  1  1
  1  2  1  0
 25 63  1  1
 30 31  1  0
 23 64  1  1
 32 33  1  0
  2 65  1  6
 14 16  1  0
  8 66  1  0
  1  8  1  1
 66 67  1  0
 14 17  2  0
 66 68  2  0
 16 32  1  0
 10 69  1  0
 33 34  1  1
 69 70  1  0
 32 35  1  6
 70 71  1  0
  1  6  1  0
 70 72  2  0
 33 36  1  0
  9 73  1  0
 12 18  1  0
 73 74  1  0
 16 37  1  6
 73 75  2  0
  5  9  1  1
 74 76  2  0
 18 38  1  0
 76 77  1  0
 18 19  1  0
 77 78  2  0
 24 39  1  1
 78 79  1  0
  2  3  1  0
 79 80  2  0
 80 74  1  0
 39 40  1  0
  7 81  1  0
 40 41  1  0
 81 82  1  0
 18 20  1  6
 81 83  2  0
M  END

> <chembl_id>
CHEMBL1224602

> <chembl_pref_name>
None


$$$$

     RDKit          2D

 58 61  0  0  0  0  0  0  0  0999 V2000
   -3.8167   -0.1458    0.0000 C   0  0  0  0  0  0  0  0  0  0  0  0
   -3.8208   -0.9708    0.0000 C   0  0  0  0  0  0  0  0  0  0  0  0
   -3.1168    0.2631    0.0000 C   0  0  0  0  0  0  0  0  0  0  0  0
   -2.4211   -0.1530    0.0000 C   0  0  0  0  0  0  0  0  0  0  0  0
   -2.4252   -0.9780    0.0000 C   0  0  0  0  0  0  0  0  0  0  0  0
   -4.5165   -1.3797    0.0000 C   0  0  0  0  0  0  0  0  0  0  0  0
   -1.7337   -1.3941    0.0000 C   0  0  0  0  0  0  0  0  0  0  0  0
   -4.5208   -2.2042    0.0000 C   0  0  0  0  0  0  0  0  0  0  0  0
   -1.7417   -2.2167    0.0000 C   0  0  0  0  0  0  0  0  0  0  0  0
   -3.8294   -2.6204    0.0000 O   0  0  0  0  0  0  0  0  0  0  0  0
   -2.4393   -2.6222    0.0000 C   0  0  0  0  0  0  0  0  0  0  0  0
   -3.8336   -3.4454    0.0000 C   0  0  0  0  0  0  0  0  0  0  0  0
   -2.4473   -3.4472    0.0000 C   0  0  0  0  0  0  0  0  0  0  0  0
   -3.1490   -3.8527    0.0000 C   0  0  0  0  0  0  0  0  0  0  0  0
   -3.1125    1.0880    0.0000 N   0  0  0  0  0  0  0  0  0  0  0  0
   -2.3960    1.4969    0.0000 O   0  0  0  0  0  0  0  0  0  0  0  0
   -2.3917    2.3219    0.0000 C   0  0  0  0  0  0  0  0  0  0  0  0
   -1.6751    2.7307    0.0000 C   0  0  0  0  0  0  0  0  0  0  0  0
   -3.1041    2.7380    0.0000 O   0  0  0  0  0  0  0  0  0  0  0  0
   -1.7024    0.2521    0.0000 C   0  0  0  0  0  0  0  0  0  0  0  0
   -1.3292   -0.6750    0.0000 O   0  0  0  0  0  0  0  0  0  0  0  0
   -0.9417   -1.6042    0.0000 C   0  0  0  0  0  0  0  0  0  0  0  0
   -0.5042   -0.6658    0.0000 C   0  0  0  0  0  0  0  0  0  0  0  0
   -0.0997    0.0533    0.0000 C   0  0  0  0  0  0  0  0  0  0  0  0
    0.7252    0.0625    0.0000 C   0  0  0  0  0  0  0  0  0  0  0  0
    1.1297    0.7816    0.0000 C   0  0  0  0  0  0  0  0  0  0  0  0
    1.9540    0.7875    0.0000 C   0  0  0  0  0  0  0  0  0  0  0  0
    1.1087    2.2046    0.0000 N   0  0  0  0  0  0  0  0  0  0  0  0
    0.7080    1.4858    0.0000 C   0  0  0  0  0  0  0  0  0  0  0  0
    1.9378    2.2165    0.0000 C   0  0  0  0  0  0  0  0  0  0  0  0
    2.3581    1.5010    0.0000 C   0  0  0  0  0  0  0  0  0  0  0  0
    3.1859    1.5082    0.0000 C   0  0  0  0  0  0  0  0  0  0  0  0
    3.5945    2.2301    0.0000 C   0  0  0  0  0  0  0  0  0  0  0  0
    3.1692    2.9463    0.0000 C   0  0  0  0  0  0  0  0  0  0  0  0
    2.3428    2.9356    0.0000 C   0  0  0  0  0  0  0  0  0  0  0  0
   -4.5312    0.2666    0.0000 C   0  0  0  0  0  0  0  0  0  0  0  0
   -3.1058   -1.3824    0.0000 O   0  0  0  0  0  0  0  0  0  0  0  0
   -4.7333   -0.5792    0.0000 O   0  0  0  0  0  0  0  0  0  0  0  0
   -5.3167   -1.5917    0.0000 C   0  0  0  0  0  0  0  0  0  0  0  0
   -5.2401   -2.6083    0.0000 C   0  0  0  0  0  0  0  0  0  0  0  0
   -5.2497   -3.4332    0.0000 C   0  0  0  0  0  0  0  0  0  0  0  0
   -4.5519   -3.8513    0.0000 O   0  0  0  0  0  0  0  0  0  0  0  0
   -3.1543   -4.6777    0.0000 C   0  0  0  0  0  0  0  0  0  0  0  0
   -1.7347   -3.8630    0.0000 O   0  0  0  0  0  0  0  0  0  0  0  0
   -3.1524   -2.2073    0.0000 C   0  0  0  0  0  0  0  0  0  0  0  0
   -1.3201   -2.9258    0.0000 O   0  0  0  0  0  0  0  0  0  0  0  0
   -0.4951   -2.9153    0.0000 C   0  0  0  0  0  0  0  0  0  0  0  0
   -0.0788   -3.6279    0.0000 O   0  0  0  0  0  0  0  0  0  0  0  0
    0.7426   -3.6193    0.0000 C   0  0  0  0  0  0  0  0  0  0  0  0
    1.1498   -2.9014    0.0000 C   0  0  0  0  0  0  0  0  0  0  0  0
    0.7294   -2.1905    0.0000 C   0  0  0  0  0  0  0  0  0  0  0  0
   -0.0982   -2.1974    0.0000 C   0  0  0  0  0  0  0  0  0  0  0  0
   -0.9029   -3.6318    0.0000 H   0  0  0  0  0  0  0  0  0  0  0  0
    1.1615   -4.3301    0.0000 C   0  0  0  0  0  0  0  0  0  0  0  0
    1.9747   -2.8940    0.0000 N   0  0  0  0  0  0  0  0  0  0  0  0
    2.3937   -3.6047    0.0000 C   0  0  0  0  0  0  0  0  0  0  0  0
    2.3808   -2.1759    0.0000 C   0  0  0  0  0  0  0  0  0  0  0  0
    1.1352   -1.4722    0.0000 O   0  0  0  0  0  0  0  0  0  0  0  0
 13 14  1  0
 28 29  2  0
 29 26  1  0
  3  4  1  0
  3 15  2  0
 30 31  1  0
  6  8  1  0
 31 32  2  0
 15 16  1  0
 32 33  1  0
 33 34  2  0
 16 17  1  0
 34 35  1  0
 35 30  2  0
  7  9  1  0
  1 36  1  1
 17 18  1  0
  2 37  1  1
  4  5  1  0
  6 38  1  1
 17 19  2  0
  6 39  1  0
  8 10  1  0
  8 40  1  6
  4 20  1  6
 40 41  1  0
  1  3  1  0
 12 42  2  0
  7 21  1  1
 14 43  1  1
  9 11  1  0
 13 44  2  0
  7 22  1  0
 11 45  1  6
  2  6  1  0
  9 46  1  6
 21 23  1  0
 46 47  1  0
 47 48  1  0
 10 12  1  0
 23 24  1  0
  1  2  1  0
 24 25  2  0
 11 13  1  0
 47 52  1  0
 48 49  1  0
 49 50  1  0
 50 51  1  0
 51 52  1  0
 25 26  1  0
 47 53  1  6
 12 14  1  0
 49 54  1  1
 26 27  2  0
 50 55  1  1
 27 31  1  0
 55 56  1  0
  5  7  1  0
 55 57  1  0
 30 28  1  0
 51 58  1  6
M  END

> <chembl_id>
CHEMBL1288427

> <chembl_pref_name>
None


$$$$

     RDKit          2D

 82 87  0  0  0  0  0  0  0  0999 V2000
    5.9480   -9.7963    0.0000 C   0  0  0  0  0  0  0  0  0  0  0  0
    5.9480   -8.9722    0.0000 C   0  0  0  0  0  0  0  0  0  0  0  0
    5.2367   -8.5643    0.0000 O   0  0  0  0  0  0  0  0  0  0  0  0
    4.5255   -8.9722    0.0000 C   0  0  0  0  0  0  0  0  0  0  0  0
    4.5255   -9.7963    0.0000 C   0  0  0  0  0  0  0  0  0  0  0  0
    5.2367  -10.2125    0.0000 C   0  0  0  0  0  0  0  0  0  0  0  0
    6.6610   -8.5591    0.0000 O   0  0  0  0  0  0  0  0  0  0  0  0
    3.8125   -8.5591    0.0000 C   0  0  0  0  0  0  0  0  0  0  0  0
    5.2367  -11.0365    0.0000 N   0  0  0  0  0  0  0  0  0  0  0  0
    4.5231  -11.4485    0.0000 C   0  0  0  0  0  0  0  0  0  0  0  0
    5.9504  -11.4485    0.0000 C   0  0  0  0  0  0  0  0  0  0  0  0
    3.8107  -10.2062    0.0000 O   0  0  0  0  0  0  0  0  0  0  0  0
    6.6628  -10.2062    0.0000 O   0  0  0  0  0  0  0  0  0  0  0  0
    3.0982   -9.7921    0.0000 C   0  0  0  0  0  0  0  0  0  0  0  0
    2.3833  -10.2020    0.0000 C   0  0  0  0  0  0  0  0  0  0  0  0
    1.6742   -9.7843    0.0000 C   0  0  0  0  0  0  0  0  0  0  0  0
    0.9597  -10.1935    0.0000 C   0  0  0  0  0  0  0  0  0  0  0  0
    0.9569  -11.0184    0.0000 C   0  0  0  0  0  0  0  0  0  0  0  0
    1.6745  -11.4324    0.0000 C   0  0  0  0  0  0  0  0  0  0  0  0
    2.3859  -11.0207    0.0000 C   0  0  0  0  0  0  0  0  0  0  0  0
    7.3752   -9.7921    0.0000 C   0  0  0  0  0  0  0  0  0  0  0  0
    8.0901  -10.2020    0.0000 C   0  0  0  0  0  0  0  0  0  0  0  0
    7.3728   -8.9680    0.0000 O   0  0  0  0  0  0  0  0  0  0  0  0
    8.0885  -11.0250    0.0000 C   0  0  0  0  0  0  0  0  0  0  0  0
    8.8025  -11.4349    0.0000 C   0  0  0  0  0  0  0  0  0  0  0  0
    9.5159  -11.0206    0.0000 C   0  0  0  0  0  0  0  0  0  0  0  0
    9.5108  -10.1924    0.0000 C   0  0  0  0  0  0  0  0  0  0  0  0
    8.7962   -9.7863    0.0000 C   0  0  0  0  0  0  0  0  0  0  0  0
    4.7690   -3.0142    0.0000 C   0  0  0  0  0  0  0  0  0  0  0  0
    4.7690   -2.1906    0.0000 C   0  0  0  0  0  0  0  0  0  0  0  0
    5.4839   -1.7809    0.0000 C   0  0  0  0  0  0  0  0  0  0  0  0
    6.1988   -2.1948    0.0000 C   0  0  0  0  0  0  0  0  0  0  0  0
    6.1988   -3.0184    0.0000 C   0  0  0  0  0  0  0  0  0  0  0  0
    6.9136   -3.4281    0.0000 C   0  0  0  0  0  0  0  0  0  0  0  0
    6.9136   -4.2517    0.0000 C   0  0  0  0  0  0  0  0  0  0  0  0
    6.1988   -4.6656    0.0000 C   0  0  0  0  0  0  0  0  0  0  0  0
    6.1988   -5.4893    0.0000 C   0  0  0  0  0  0  0  0  0  0  0  0
    5.4839   -5.9031    0.0000 C   0  0  0  0  0  0  0  0  0  0  0  0
    4.7690   -5.4934    0.0000 O   0  0  0  0  0  0  0  0  0  0  0  0
    4.7690   -4.6698    0.0000 C   0  0  0  0  0  0  0  0  0  0  0  0
    5.4857   -6.7308    0.0000 O   0  0  0  0  0  0  0  0  0  0  0  0
    5.4857   -0.9531    0.0000 C   0  0  0  0  0  0  0  0  0  0  0  0
    4.0528   -1.7756    0.0000 O   0  0  0  0  0  0  0  0  0  0  0  0
    6.9973   -2.8010    0.0000 C   0  0  0  0  0  0  0  0  0  0  0  0
    6.6086   -2.2994    0.0000 O   0  0  0  0  0  0  0  0  0  0  0  0
    6.3911   -1.4967    0.0000 C   0  0  0  0  0  0  0  0  0  0  0  0
    7.6287   -3.0101    0.0000 O   0  0  0  0  0  0  0  0  0  0  0  0
    8.3478   -3.4200    0.0000 C   0  0  0  0  0  0  0  0  0  0  0  0
    8.3503   -4.2485    0.0000 O   0  0  0  0  0  0  0  0  0  0  0  0
    9.0654   -4.6583    0.0000 C   0  0  0  0  0  0  0  0  0  0  0  0
    9.7824   -4.2440    0.0000 C   0  0  0  0  0  0  0  0  0  0  0  0
    9.7798   -3.4152    0.0000 C   0  0  0  0  0  0  0  0  0  0  0  0
    9.0600   -3.0008    0.0000 C   0  0  0  0  0  0  0  0  0  0  0  0
    9.0668   -5.4861    0.0000 C   0  0  0  0  0  0  0  0  0  0  0  0
   10.4957   -2.9998    0.0000 N   0  0  0  0  0  0  0  0  0  0  0  0
   11.2135   -3.4121    0.0000 C   0  0  0  0  0  0  0  0  0  0  0  0
   10.4939   -2.1720    0.0000 C   0  0  0  0  0  0  0  0  0  0  0  0
    9.0562   -2.1730    0.0000 O   0  0  0  0  0  0  0  0  0  0  0  0
    8.1303   -2.6171    0.0000 H   0  0  0  0  0  0  0  0  0  0  0  0
    4.0499   -2.6003    0.0000 C   0  0  0  0  0  0  0  0  0  0  0  0
    3.8451   -5.0503    0.0000 C   0  0  0  0  0  0  0  0  0  0  0  0
    7.6287   -4.6656    0.0000 C   0  0  0  0  0  0  0  0  0  0  0  0
    6.7841   -5.2509    0.0000 O   0  0  0  0  0  0  0  0  0  0  0  0
    4.3509   -5.3846    0.0000 C   0  0  0  0  0  0  0  0  0  0  0  0
    4.7608   -6.1038    0.0000 C   0  0  0  0  0  0  0  0  0  0  0  0
    5.3990   -5.2755    0.0000 C   0  0  0  0  0  0  0  0  0  0  0  0
    6.7551   -6.0781    0.0000 C   0  0  0  0  0  0  0  0  0  0  0  0
    6.0240   -6.4658    0.0000 O   0  0  0  0  0  0  0  0  0  0  0  0
    5.9931   -7.2894    0.0000 C   0  0  0  0  0  0  0  0  0  0  0  0
    6.6930   -7.7320    0.0000 C   0  0  0  0  0  0  0  0  0  0  0  0
    7.4258   -7.3447    0.0000 C   0  0  0  0  0  0  0  0  0  0  0  0
    7.4585   -6.5149    0.0000 C   0  0  0  0  0  0  0  0  0  0  0  0
    7.6370   -8.1398    0.0000 O   0  0  0  0  0  0  0  0  0  0  0  0
    8.2515   -7.3412    0.0000 C   0  0  0  0  0  0  0  0  0  0  0  0
    8.4360   -8.3557    0.0000 C   0  0  0  0  0  0  0  0  0  0  0  0
    7.4697   -5.6564    0.0000 H   0  0  0  0  0  0  0  0  0  0  0  0
    5.2608   -7.6752    0.0000 C   0  0  0  0  0  0  0  0  0  0  0  0
    4.0580   -4.2472    0.0000 C   0  0  0  0  0  0  0  0  0  0  0  0
    4.0583   -3.4281    0.0000 C   0  0  0  0  0  0  0  0  0  0  0  0
    3.2794   -3.1747    0.0000 O   0  0  0  0  0  0  0  0  0  0  0  0
    3.2789   -4.4999    0.0000 O   0  0  0  0  0  0  0  0  0  0  0  0
    5.7329   -8.1767    0.0000 H   0  0  0  0  0  0  0  0  0  0  0  0
  1  2  1  0
  1  6  1  0
  2  3  1  0
  3  4  1  0
  4  5  1  0
  5  6  1  0
  2  7  1  0
  4  8  1  1
  6  9  1  1
  9 10  1  0
  9 11  1  0
  5 12  1  6
  1 13  1  6
 12 14  1  0
 14 15  1  0
 15 16  2  0
 16 17  1  0
 17 18  2  0
 18 19  1  0
 19 20  2  0
 20 15  1  0
 13 21  1  0
 21 22  1  0
 21 23  2  0
 22 24  2  0
 24 25  1  0
 25 26  2  0
 26 27  1  0
 27 28  2  0
 28 22  1  0
 79 29  1  0
 29 30  1  0
 30 31  1  0
 31 32  1  0
 32 33  1  0
 33 34  1  0
 34 35  1  0
 35 36  1  0
 36 37  1  0
 37 38  1  0
 38 39  1  0
 40 39  1  0
 78 40  1  0
 38 41  2  0
 31 42  1  6
 30 43  2  0
 33 44  1  0
 33 45  1  6
 45 46  1  0
 34 47  1  6
 47 48  1  0
 48 49  1  0
 48 53  1  0
 49 50  1  0
 50 51  1  0
 51 52  1  0
 52 53  1  0
 50 54  1  1
 52 55  1  1
 55 56  1  0
 55 57  1  0
 53 58  1  6
 48 59  1  6
 29 60  1  6
 78 61  1  0
 35 62  1  1
 36 63  1  1
 40 64  1  1
 64 65  1  0
 37 66  1  1
 63 67  1  0
 67 68  1  0
 67 72  1  0
 68 69  1  0
 69 70  1  0
 70 71  1  0
 71 72  1  0
 70  7  1  1
 71 73  1  1
 71 74  1  0
 73 75  1  0
 67 76  1  6
 69 77  1  6
 79 78  1  0
 79 80  1  6
 78 81  1  1
  2 82  1  6
M  END

> <chembl_id>
CHEMBL2441779

> <chembl_pref_name>
None


$$$$

     RDKit          2D

 78 83  0  0  0  0  0  0  0  0999 V2000
    5.3833  -23.0723    0.0000 C   0  0  0  0  0  0  0  0  0  0  0  0
    5.3833  -22.2493    0.0000 C   0  0  0  0  0  0  0  0  0  0  0  0
    4.6730  -21.8420    0.0000 O   0  0  0  0  0  0  0  0  0  0  0  0
    3.9628  -22.2493    0.0000 C   0  0  0  0  0  0  0  0  0  0  0  0
    3.9628  -23.0723    0.0000 C   0  0  0  0  0  0  0  0  0  0  0  0
    4.6730  -23.4879    0.0000 C   0  0  0  0  0  0  0  0  0  0  0  0
    6.0954  -21.8368    0.0000 O   0  0  0  0  0  0  0  0  0  0  0  0
    3.2505  -21.8368    0.0000 C   0  0  0  0  0  0  0  0  0  0  0  0
    4.6730  -24.3109    0.0000 N   0  0  0  0  0  0  0  0  0  0  0  0
    3.9603  -24.7224    0.0000 C   0  0  0  0  0  0  0  0  0  0  0  0
    5.3857  -24.7224    0.0000 C   0  0  0  0  0  0  0  0  0  0  0  0
    3.2488  -23.4817    0.0000 O   0  0  0  0  0  0  0  0  0  0  0  0
    6.0972  -23.4817    0.0000 O   0  0  0  0  0  0  0  0  0  0  0  0
    6.8088  -23.0681    0.0000 C   0  0  0  0  0  0  0  0  0  0  0  0
    7.5227  -23.4775    0.0000 C   0  0  0  0  0  0  0  0  0  0  0  0
    6.8063  -22.2451    0.0000 O   0  0  0  0  0  0  0  0  0  0  0  0
    7.5212  -24.2995    0.0000 C   0  0  0  0  0  0  0  0  0  0  0  0
    8.2342  -24.7088    0.0000 C   0  0  0  0  0  0  0  0  0  0  0  0
    8.9468  -24.2952    0.0000 C   0  0  0  0  0  0  0  0  0  0  0  0
    8.9417  -23.4680    0.0000 C   0  0  0  0  0  0  0  0  0  0  0  0
    8.2280  -23.0623    0.0000 C   0  0  0  0  0  0  0  0  0  0  0  0
    4.2059  -16.2990    0.0000 C   0  0  0  0  0  0  0  0  0  0  0  0
    4.2059  -15.4764    0.0000 C   0  0  0  0  0  0  0  0  0  0  0  0
    4.9199  -15.0672    0.0000 C   0  0  0  0  0  0  0  0  0  0  0  0
    5.6339  -15.4806    0.0000 C   0  0  0  0  0  0  0  0  0  0  0  0
    5.6339  -16.3031    0.0000 C   0  0  0  0  0  0  0  0  0  0  0  0
    6.3479  -16.7123    0.0000 C   0  0  0  0  0  0  0  0  0  0  0  0
    6.3479  -17.5348    0.0000 C   0  0  0  0  0  0  0  0  0  0  0  0
    5.6339  -17.9482    0.0000 C   0  0  0  0  0  0  0  0  0  0  0  0
    5.6339  -18.7707    0.0000 C   0  0  0  0  0  0  0  0  0  0  0  0
    4.9199  -19.1841    0.0000 C   0  0  0  0  0  0  0  0  0  0  0  0
    4.2059  -18.7749    0.0000 O   0  0  0  0  0  0  0  0  0  0  0  0
    4.2059  -17.9523    0.0000 C   0  0  0  0  0  0  0  0  0  0  0  0
    4.9217  -20.0109    0.0000 O   0  0  0  0  0  0  0  0  0  0  0  0
    4.9217  -14.2405    0.0000 C   0  0  0  0  0  0  0  0  0  0  0  0
    3.4906  -15.0619    0.0000 O   0  0  0  0  0  0  0  0  0  0  0  0
    6.4314  -16.0860    0.0000 C   0  0  0  0  0  0  0  0  0  0  0  0
    6.0431  -15.5849    0.0000 O   0  0  0  0  0  0  0  0  0  0  0  0
    5.8259  -14.7833    0.0000 C   0  0  0  0  0  0  0  0  0  0  0  0
    7.0619  -16.2947    0.0000 O   0  0  0  0  0  0  0  0  0  0  0  0
    7.7801  -16.7041    0.0000 C   0  0  0  0  0  0  0  0  0  0  0  0
    7.7826  -17.5316    0.0000 O   0  0  0  0  0  0  0  0  0  0  0  0
    8.4968  -17.9408    0.0000 C   0  0  0  0  0  0  0  0  0  0  0  0
    9.2128  -17.5270    0.0000 C   0  0  0  0  0  0  0  0  0  0  0  0
    9.2102  -16.6994    0.0000 C   0  0  0  0  0  0  0  0  0  0  0  0
    8.4915  -16.2856    0.0000 C   0  0  0  0  0  0  0  0  0  0  0  0
    8.4983  -18.7676    0.0000 C   0  0  0  0  0  0  0  0  0  0  0  0
    9.9254  -16.2845    0.0000 N   0  0  0  0  0  0  0  0  0  0  0  0
   10.6422  -16.6963    0.0000 C   0  0  0  0  0  0  0  0  0  0  0  0
    9.9236  -15.4577    0.0000 C   0  0  0  0  0  0  0  0  0  0  0  0
    8.4876  -15.4588    0.0000 O   0  0  0  0  0  0  0  0  0  0  0  0
    7.5629  -15.9023    0.0000 H   0  0  0  0  0  0  0  0  0  0  0  0
    3.2832  -18.3323    0.0000 C   0  0  0  0  0  0  0  0  0  0  0  0
    7.0619  -17.9482    0.0000 C   0  0  0  0  0  0  0  0  0  0  0  0
    6.2185  -18.5327    0.0000 O   0  0  0  0  0  0  0  0  0  0  0  0
    3.7884  -18.6664    0.0000 C   0  0  0  0  0  0  0  0  0  0  0  0
    4.1977  -19.3846    0.0000 C   0  0  0  0  0  0  0  0  0  0  0  0
    4.8352  -18.5572    0.0000 C   0  0  0  0  0  0  0  0  0  0  0  0
    6.1895  -19.3590    0.0000 C   0  0  0  0  0  0  0  0  0  0  0  0
    5.4592  -19.7461    0.0000 O   0  0  0  0  0  0  0  0  0  0  0  0
    5.4284  -20.5687    0.0000 C   0  0  0  0  0  0  0  0  0  0  0  0
    6.1276  -21.0106    0.0000 C   0  0  0  0  0  0  0  0  0  0  0  0
    6.8593  -20.6239    0.0000 C   0  0  0  0  0  0  0  0  0  0  0  0
    6.8921  -19.7952    0.0000 C   0  0  0  0  0  0  0  0  0  0  0  0
    7.0702  -21.4179    0.0000 O   0  0  0  0  0  0  0  0  0  0  0  0
    7.6840  -20.6205    0.0000 C   0  0  0  0  0  0  0  0  0  0  0  0
    7.8683  -21.6336    0.0000 C   0  0  0  0  0  0  0  0  0  0  0  0
    6.9032  -18.9378    0.0000 H   0  0  0  0  0  0  0  0  0  0  0  0
    4.6970  -20.9539    0.0000 C   0  0  0  0  0  0  0  0  0  0  0  0
    3.4958  -17.5304    0.0000 C   0  0  0  0  0  0  0  0  0  0  0  0
    3.4961  -16.7123    0.0000 C   0  0  0  0  0  0  0  0  0  0  0  0
    2.7182  -16.4592    0.0000 O   0  0  0  0  0  0  0  0  0  0  0  0
    2.2371  -17.1208    0.0000 C   0  0  0  0  0  0  0  0  0  0  0  0
    2.7177  -17.7827    0.0000 O   0  0  0  0  0  0  0  0  0  0  0  0
    1.4104  -17.1205    0.0000 O   0  0  0  0  0  0  0  0  0  0  0  0
    3.0828  -15.9963    0.0000 H   0  0  0  0  0  0  0  0  0  0  0  0
    5.1686  -21.4548    0.0000 H   0  0  0  0  0  0  0  0  0  0  0  0
    4.9211  -16.7101    0.0000 C   0  0  0  0  0  0  0  0  0  0  0  0
  1  2  1  0
  1  6  1  0
  2  3  1  0
  3  4  1  0
  4  5  1  0
  5  6  1  0
  2  7  1  0
  4  8  1  1
  6  9  1  1
  9 10  1  0
  9 11  1  0
  5 12  1  6
  1 13  1  6
 13 14  1  0
 14 15  1  0
 14 16  2  0
 15 17  2  0
 17 18  1  0
 18 19  2  0
 19 20  1  0
 20 21  2  0
 21 15  1  0
 71 22  1  0
 22 23  1  0
 23 24  1  0
 24 25  1  0
 25 26  1  0
 26 27  1  0
 27 28  1  0
 28 29  1  0
 29 30  1  0
 30 31  1  0
 31 32  1  0
 32 33  1  0
 33 70  1  0
 31 34  2  0
 24 35  1  6
 23 36  2  0
 26 37  1  0
 26 38  1  6
 38 39  1  0
 27 40  1  6
 40 41  1  0
 41 42  1  0
 41 46  1  0
 42 43  1  0
 43 44  1  0
 44 45  1  0
 45 46  1  0
 43 47  1  1
 45 48  1  1
 48 49  1  0
 48 50  1  0
 46 51  1  6
 41 52  1  6
 70 53  1  6
 28 54  1  1
 29 55  1  1
 33 56  1  1
 56 57  1  0
 30 58  1  1
 55 59  1  0
 59 60  1  0
 59 64  1  0
 60 61  1  0
 61 62  1  0
 62 63  1  0
 63 64  1  0
 62  7  1  1
 63 65  1  1
 63 66  1  0
 65 67  1  0
 59 68  1  6
 61 69  1  6
 70 71  1  0
 71 72  1  0
 72 73  1  0
 73 74  1  0
 74 70  1  0
 73 75  2  0
 71 76  1  1
  2 77  1  6
 22 78  1  6
M  END

> <chembl_id>
CHEMBL2441784

> <chembl_pref_name>
None


$$$$

     RDKit          2D

 74 78  0  0  0  0  0  0  0  0999 V2000
   14.4942   -6.1687    0.0000 N   0  0  0  0  0  0  0  0  0  0  0  0
    9.2906  -10.8133    0.0000 C   0  0  0  0  0  0  0  0  0  0  0  0
    8.8036   -6.1832    0.0000 C   0  0  0  0  0  0  0  0  0  0  0  0
   10.9333   -6.5923    0.0000 C   0  0  0  0  0  0  0  0  0  0  0  0
    9.5153   -4.1329    0.0000 C   0  0  0  0  0  0  0  0  0  0  0  0
   11.4886   -8.8096    0.0000 H   0  0  0  0  0  0  0  0  0  0  0  0
    8.8036   -5.3647    0.0000 C   0  0  0  0  0  0  0  0  0  0  0  0
    8.3861   -8.5382    0.0000 C   0  0  0  0  0  0  0  0  0  0  0  0
    9.9728  -12.1046    0.0000 C   0  0  0  0  0  0  0  0  0  0  0  0
   11.0168   -5.9702    0.0000 C   0  0  0  0  0  0  0  0  0  0  0  0
   12.3597   -7.4075    0.0000 O   0  0  0  0  0  0  0  0  0  0  0  0
   11.6431   -7.8241    0.0000 C   0  0  0  0  0  0  0  0  0  0  0  0
   10.7130  -10.8700    0.0000 C   0  0  0  0  0  0  0  0  0  0  0  0
   12.8051  -12.9134    0.0000 C   0  0  0  0  0  0  0  0  0  0  0  0
    8.5605  -12.9234    0.0000 C   0  0  0  0  0  0  0  0  0  0  0  0
   13.7858   -7.4029    0.0000 C   0  0  0  0  0  0  0  0  0  0  0  0
   10.4154   -4.6757    0.0000 C   0  0  0  0  0  0  0  0  0  0  0  0
    9.7622  -11.3142    0.0000 H   0  0  0  0  0  0  0  0  0  0  0  0
    9.5153   -9.8744    0.0000 O   0  0  0  0  0  0  0  0  0  0  0  0
   13.0739   -7.8167    0.0000 C   0  0  0  0  0  0  0  0  0  0  0  0
    7.8851   -8.2041    0.0000 C   0  0  0  0  0  0  0  0  0  0  0  0
   13.5198  -14.1381    0.0000 C   0  0  0  0  0  0  0  0  0  0  0  0
    7.3237   -7.6586    0.0000 O   0  0  0  0  0  0  0  0  0  0  0  0
    9.2666  -13.3349    0.0000 C   0  0  0  0  0  0  0  0  0  0  0  0
    8.5580  -14.5653    0.0000 C   0  0  0  0  0  0  0  0  0  0  0  0
   10.2234   -6.1873    0.0000 C   0  0  0  0  0  0  0  0  0  0  0  0
    9.4288   -8.4290    0.0000 C   0  0  0  0  0  0  0  0  0  0  0  0
   13.5147  -13.3150    0.0000 C   0  0  0  0  0  0  0  0  0  0  0  0
   12.1024  -14.1424    0.0000 C   0  0  0  0  0  0  0  0  0  0  0  0
   12.3572   -6.5841    0.0000 C   0  0  0  0  0  0  0  0  0  0  0  0
    9.5135   -9.0518    0.0000 C   0  0  0  0  0  0  0  0  0  0  0  0
   13.0647   -5.3471    0.0000 O   0  0  0  0  0  0  0  0  0  0  0  0
    8.0925   -4.9502    0.0000 O   0  0  0  0  0  0  0  0  0  0  0  0
   12.4454  -11.4889    0.0000 C   0  0  0  0  0  0  0  0  0  0  0  0
   10.2234   -8.6425    0.0000 C   0  0  0  0  0  0  0  0  0  0  0  0
    9.2666  -14.1538    0.0000 N   0  0  0  0  0  0  0  0  0  0  0  0
   10.2234   -7.8241    0.0000 C   0  0  0  0  0  0  0  0  0  0  0  0
    9.9728  -12.9234    0.0000 C   0  0  0  0  0  0  0  0  0  0  0  0
   10.9333   -7.4107    0.0000 C   0  0  0  0  0  0  0  0  0  0  0  0
   11.6431   -6.1789    0.0000 O   0  0  0  0  0  0  0  0  0  0  0  0
   10.2234   -5.3689    0.0000 C   0  0  0  0  0  0  0  0  0  0  0  0
   12.8113  -14.5517    0.0000 C   0  0  0  0  0  0  0  0  0  0  0  0
   10.6849  -11.6921    0.0000 O   0  0  0  0  0  0  0  0  0  0  0  0
   13.7832   -6.5794    0.0000 C   0  0  0  0  0  0  0  0  0  0  0  0
   10.8039   -8.4045    0.0000 O   0  0  0  0  0  0  0  0  0  0  0  0
   10.0487   -9.6138    0.0000 O   0  0  0  0  0  0  0  0  0  0  0  0
   12.1441   -5.7865    0.0000 H   0  0  0  0  0  0  0  0  0  0  0  0
    8.0977   -7.4063    0.0000 C   0  0  0  0  0  0  0  0  0  0  0  0
   10.7749   -9.2267    0.0000 C   0  0  0  0  0  0  0  0  0  0  0  0
    8.7954   -9.2523    0.0000 C   0  0  0  0  0  0  0  0  0  0  0  0
   11.3917  -12.1004    0.0000 O   0  0  0  0  0  0  0  0  0  0  0  0
   10.6326   -5.4732    0.0000 O   0  0  0  0  0  0  0  0  0  0  0  0
   11.4447  -10.4874    0.0000 C   0  0  0  0  0  0  0  0  0  0  0  0
    8.0980   -6.5923    0.0000 C   0  0  0  0  0  0  0  0  0  0  0  0
   11.4775   -9.6629    0.0000 C   0  0  0  0  0  0  0  0  0  0  0  0
    7.8507  -13.3287    0.0000 O   0  0  0  0  0  0  0  0  0  0  0  0
   13.0754   -8.6394    0.0000 C   0  0  0  0  0  0  0  0  0  0  0  0
   12.1039  -13.3245    0.0000 C   0  0  0  0  0  0  0  0  0  0  0  0
   10.6867  -13.3287    0.0000 O   0  0  0  0  0  0  0  0  0  0  0  0
    8.8036   -7.8282    0.0000 C   0  0  0  0  0  0  0  0  0  0  0  0
   10.0179  -10.4322    0.0000 C   0  0  0  0  0  0  0  0  0  0  0  0
    7.8524  -11.6921    0.0000 C   0  0  0  0  0  0  0  0  0  0  0  0
   11.3942  -12.9192    0.0000 C   0  0  0  0  0  0  0  0  0  0  0  0
    8.8036   -8.6467    0.0000 O   0  0  0  0  0  0  0  0  0  0  0  0
   12.2652  -10.4840    0.0000 C   0  0  0  0  0  0  0  0  0  0  0  0
   13.0686   -6.1698    0.0000 C   0  0  0  0  0  0  0  0  0  0  0  0
    9.5135   -4.9555    0.0000 C   0  0  0  0  0  0  0  0  0  0  0  0
    9.2666  -11.6973    0.0000 O   0  0  0  0  0  0  0  0  0  0  0  0
    9.9752  -14.5653    0.0000 C   0  0  0  0  0  0  0  0  0  0  0  0
   11.6514  -11.2773    0.0000 O   0  0  0  0  0  0  0  0  0  0  0  0
   15.2069   -6.5763    0.0000 C   0  0  0  0  0  0  0  0  0  0  0  0
    8.5605  -12.1046    0.0000 C   0  0  0  0  0  0  0  0  0  0  0  0
   14.4924   -5.3460    0.0000 C   0  0  0  0  0  0  0  0  0  0  0  0
    9.5117   -6.5911    0.0000 C   0  0  0  0  0  0  0  0  0  0  0  0
 48 23  1  1
  7 67  1  0
  4 39  1  0
  1 71  1  0
 63 51  2  0
  1 73  1  0
 36 25  1  0
 42 22  2  0
 14 58  1  0
 53 55  1  0
 44  1  1  1
 38 24  1  0
 36 69  1  0
 11 20  1  0
 35 31  1  0
  8 50  1  0
 40 30  1  0
 15 56  1  6
 72 62  1  1
 26  4  1  0
 30 66  1  0
 20 16  1  0
 16 44  1  0
  9 18  1  6
 53 70  1  1
 38 59  1  6
 37 35  1  0
  4 40  1  6
 24 36  1  1
 61 13  1  0
 13 43  1  1
 48 54  1  0
 26 10  1  0
 26 52  1  6
 49 55  1  0
  3  7  1  0
 70 34  1  0
  7 33  2  0
 35 27  1  1
 68 72  1  0
 39 37  1  0
 30 11  1  0
 29 42  1  0
  9 68  1  0
 53 65  1  0
 60  8  1  1
 38  9  1  0
 49 46  1  0
 45 49  1  0
 28 14  2  0
 58 29  2  0
 46 61  1  0
 63 58  1  0
 13 53  1  0
 61  2  1  6
 66 32  1  6
 37 45  1  1
 30 47  1  6
 59 63  1  0
 52 17  1  0
 54  3  2  0
 31 19  2  0
 60 64  1  0
 67 41  1  0
 44 66  1  0
 67  5  1  6
  9 43  1  0
 39 12  1  1
 31 64  1  0
 22 28  1  0
 72 15  1  0
 15 24  1  0
 49  6  1  6
 48 60  1  0
 48 21  1  0
 20 57  1  1
 41 26  1  0
  3 74  1  0
M  END

> <chembl_id>
CHEMBL2441932

> <chembl_pref_name>
None


$$$$

     RDKit          2D

 59 63  0  0  0  0  0  0  0  0999 V2000
    5.9762  -12.5509    0.0000 C   0  0  0  0  0  0  0  0  0  0  0  0
    5.9762  -11.7337    0.0000 C   0  0  0  0  0  0  0  0  0  0  0  0
    4.7133  -12.1341    0.0000 C   0  0  0  0  0  0  0  0  0  0  0  0
    5.1962  -12.7903    0.0000 O   0  0  0  0  0  0  0  0  0  0  0  0
    5.1962  -11.4654    0.0000 N   0  0  0  0  0  0  0  0  0  0  0  0
   10.2355  -11.7337    0.0000 C   0  0  0  0  0  0  0  0  0  0  0  0
    6.6779  -11.3169    0.0000 C   0  0  0  0  0  0  0  0  0  0  0  0
    7.3960  -14.1646    0.0000 C   0  0  0  0  0  0  0  0  0  0  0  0
    8.0935  -12.9265    0.0000 C   0  0  0  0  0  0  0  0  0  0  0  0
    8.1017  -13.7437    0.0000 C   0  0  0  0  0  0  0  0  0  0  0  0
   10.9537  -11.3045    0.0000 C   0  0  0  0  0  0  0  0  0  0  0  0
    8.7993  -11.7337    0.0000 C   0  0  0  0  0  0  0  0  0  0  0  0
    8.7993  -12.5509    0.0000 C   0  0  0  0  0  0  0  0  0  0  0  0
    6.6779  -10.4997    0.0000 C   0  0  0  0  0  0  0  0  0  0  0  0
    6.6944  -13.7561    0.0000 O   0  0  0  0  0  0  0  0  0  0  0  0
    9.5174  -11.3251    0.0000 O   0  0  0  0  0  0  0  0  0  0  0  0
   11.6718  -11.7255    0.0000 C   0  0  0  0  0  0  0  0  0  0  0  0
    8.1017  -11.3169    0.0000 C   0  0  0  0  0  0  0  0  0  0  0  0
    6.6779  -12.9512    0.0000 C   0  0  0  0  0  0  0  0  0  0  0  0
   10.2479  -12.5550    0.0000 O   0  0  0  0  0  0  0  0  0  0  0  0
    7.3836  -10.0787    0.0000 C   0  0  0  0  0  0  0  0  0  0  0  0
    8.1017  -10.4997    0.0000 C   0  0  0  0  0  0  0  0  0  0  0  0
   11.6718  -12.5509    0.0000 C   0  0  0  0  0  0  0  0  0  0  0  0
    3.8920  -12.1341    0.0000 O   0  0  0  0  0  0  0  0  0  0  0  0
   12.3858  -11.3045    0.0000 N   0  0  0  0  0  0  0  0  0  0  0  0
    7.4084  -14.9901    0.0000 O   0  0  0  0  0  0  0  0  0  0  0  0
    7.3836  -12.5179    0.0000 O   0  0  0  0  0  0  0  0  0  0  0  0
   10.9537  -12.9636    0.0000 C   0  0  0  0  0  0  0  0  0  0  0  0
    5.9638  -10.0787    0.0000 O   0  0  0  0  0  0  0  0  0  0  0  0
   10.9413  -10.4873    0.0000 O   0  0  0  0  0  0  0  0  0  0  0  0
    5.5552  -13.2567    0.0000 C   0  0  0  0  0  0  0  0  0  0  0  0
    7.6808  -12.0309    0.0000 O   0  0  0  0  0  0  0  0  0  0  0  0
    7.3093  -11.5074    0.0000 C   0  0  0  0  0  0  0  0  0  0  0  0
    8.8116  -14.1399    0.0000 C   0  0  0  0  0  0  0  0  0  0  0  0
    9.4926  -12.9719    0.0000 C   0  0  0  0  0  0  0  0  0  0  0  0
    7.3836  -10.9083    0.0000 C   0  0  0  0  0  0  0  0  0  0  0  0
    5.9638  -13.3598    0.0000 C   0  0  0  0  0  0  0  0  0  0  0  0
    7.3836   -9.2615    0.0000 C   0  0  0  0  0  0  0  0  0  0  0  0
   12.3858  -10.4873    0.0000 C   0  0  0  0  0  0  0  0  0  0  0  0
   13.0957  -11.7255    0.0000 C   0  0  0  0  0  0  0  0  0  0  0  0
   10.9537  -13.7808    0.0000 C   0  0  0  0  0  0  0  0  0  0  0  0
    6.8553  -12.0226    0.0000 C   0  0  0  0  0  0  0  0  0  0  0  0
    5.9515  -14.1770    0.0000 C   0  0  0  0  0  0  0  0  0  0  0  0
    5.9762  -10.9041    0.0000 H   0  0  0  0  0  0  0  0  0  0  0  0
    9.6288  -12.2785    0.0000 H   0  0  0  0  0  0  0  0  0  0  0  0
    4.9492  -10.6865    0.0000 C   0  0  0  0  0  0  0  0  0  0  0  0
    4.1511  -10.5109    0.0000 C   0  0  0  0  0  0  0  0  0  0  0  0
    3.9041   -9.7319    0.0000 C   0  0  0  0  0  0  0  0  0  0  0  0
    3.1060   -9.5563    0.0000 O   0  0  0  0  0  0  0  0  0  0  0  0
    2.5549  -10.1597    0.0000 C   0  0  0  0  0  0  0  0  0  0  0  0
    1.7589   -9.9816    0.0000 C   0  0  0  0  0  0  0  0  0  0  0  0
    2.2576  -11.5380    0.0000 N   0  0  0  0  0  0  0  0  0  0  0  0
    2.8050  -10.9341    0.0000 C   0  0  0  0  0  0  0  0  0  0  0  0
    1.4548  -11.3641    0.0000 C   0  0  0  0  0  0  0  0  0  0  0  0
    1.2065  -10.5886    0.0000 C   0  0  0  0  0  0  0  0  0  0  0  0
    0.4123  -10.4173    0.0000 C   0  0  0  0  0  0  0  0  0  0  0  0
   -0.1343  -11.0205    0.0000 C   0  0  0  0  0  0  0  0  0  0  0  0
    0.1187  -11.7978    0.0000 C   0  0  0  0  0  0  0  0  0  0  0  0
    0.9123  -11.9654    0.0000 C   0  0  0  0  0  0  0  0  0  0  0  0
  2  1  1  0
  3  4  1  0
  4  1  1  0
  5  2  1  0
  6 16  1  0
  7  2  1  0
  8 15  1  0
  9 10  1  0
 10  8  1  0
 11  6  1  0
 12 13  1  0
 13  9  1  0
 14  7  1  0
 15 19  1  0
 12 16  1  6
 17 11  1  0
 18 22  1  0
 19  1  1  0
 20  6  1  0
 21 14  1  0
 22 21  1  0
 23 28  1  0
 24  3  2  0
 17 25  1  1
 26  8  2  0
 27  9  2  0
 28 20  1  0
 29 14  2  0
 11 30  1  6
  1 31  1  6
 32 18  1  0
  7 33  1  6
 10 34  1  1
 13 35  1  1
 18 36  1  1
 19 37  1  1
 21 38  1  6
 39 25  1  0
 40 25  1  0
 28 41  1  1
 42 32  1  0
 43 37  1  0
  2 44  1  1
  6 45  1  6
  5  3  1  0
 18 12  1  0
 17 23  1  0
  5 46  1  0
 46 47  1  0
 47 48  1  0
 48 49  1  0
 49 50  1  0
 50 51  2  0
 51 55  1  0
 54 52  1  0
 52 53  2  0
 53 50  1  0
 54 55  1  0
 55 56  2  0
 56 57  1  0
 57 58  2  0
 58 59  1  0
 59 54  2  0
M  END

> <chembl_id>
CHEMBL4128549

> <chembl_pref_name>
None


$$$$

     RDKit          2D

 55 59  0  0  0  0  0  0  0  0999 V2000
   -2.7572    1.2329    0.0000 C   0  0  0  0  0  0  0  0  0  0  0  0
   -3.4666    0.7872    0.0000 C   0  0  0  0  0  0  0  0  0  0  0  0
   -2.0648    0.7979    0.0000 C   0  0  0  0  0  0  0  0  0  0  0  0
   -3.3610   -0.0314    0.0000 C   0  0  0  0  0  0  0  0  0  0  0  0
   -2.0547    0.0954    0.0000 C   0  0  0  0  0  0  0  0  0  0  0  0
   -4.1173   -0.3647    0.0000 C   0  0  0  0  0  0  0  0  0  0  0  0
   -1.4172   -0.3457    0.0000 C   0  0  0  0  0  0  0  0  0  0  0  0
   -4.1107   -1.1913    0.0000 C   0  0  0  0  0  0  0  0  0  0  0  0
   -1.4115   -1.1680    0.0000 C   0  0  0  0  0  0  0  0  0  0  0  0
   -3.3471   -1.5116    0.0000 O   0  0  0  0  0  0  0  0  0  0  0  0
   -2.1755   -1.5076    0.0000 C   0  0  0  0  0  0  0  0  0  0  0  0
   -3.3323   -2.2625    0.0000 C   0  0  0  0  0  0  0  0  0  0  0  0
   -2.0574   -2.3119    0.0000 C   0  0  0  0  0  0  0  0  0  0  0  0
   -2.7556   -2.7611    0.0000 C   0  0  0  0  0  0  0  0  0  0  0  0
   -2.7586    2.0600    0.0000 O   0  0  0  0  0  0  0  0  0  0  0  0
   -4.2058    1.1325    0.0000 C   0  0  0  0  0  0  0  0  0  0  0  0
   -0.6249   -0.5578    0.0000 C   0  0  0  0  0  0  0  0  0  0  0  0
   -0.7268   -1.6144    0.0000 O   0  0  0  0  0  0  0  0  0  0  0  0
   -1.3120   -2.6590    0.0000 O   0  0  0  0  0  0  0  0  0  0  0  0
   -2.8884   -1.1037    0.0000 C   0  0  0  0  0  0  0  0  0  0  0  0
   -2.7519   -3.5860    0.0000 C   0  0  0  0  0  0  0  0  0  0  0  0
   -4.1962   -2.6753    0.0000 O   0  0  0  0  0  0  0  0  0  0  0  0
   -4.7978   -1.6554    0.0000 C   0  0  0  0  0  0  0  0  0  0  0  0
   -5.5322   -1.2857    0.0000 C   0  0  0  0  0  0  0  0  0  0  0  0
   -2.7152    0.4408    0.0000 N   0  0  0  0  0  0  0  0  0  0  0  0
    0.0900   -1.6330    0.0000 C   0  0  0  0  0  0  0  0  0  0  0  0
    0.4839   -2.3476    0.0000 O   0  0  0  0  0  0  0  0  0  0  0  0
    1.2973   -2.3706    0.0000 C   0  0  0  0  0  0  0  0  0  0  0  0
    1.7217   -1.6706    0.0000 C   0  0  0  0  0  0  0  0  0  0  0  0
    1.3278   -0.9561    0.0000 C   0  0  0  0  0  0  0  0  0  0  0  0
    0.5070   -0.9324    0.0000 C   0  0  0  0  0  0  0  0  0  0  0  0
    1.6950   -3.0895    0.0000 C   0  0  0  0  0  0  0  0  0  0  0  0
    1.7530   -0.2554    0.0000 N   0  0  0  0  0  0  0  0  0  0  0  0
    2.5752   -0.2715    0.0000 C   0  0  0  0  0  0  0  0  0  0  0  0
    1.3563    0.4691    0.0000 C   0  0  0  0  0  0  0  0  0  0  0  0
   -0.4283   -2.4882    0.0000 H   0  0  0  0  0  0  0  0  0  0  0  0
   -4.8072    0.0882    0.0000 O   0  0  0  0  0  0  0  0  0  0  0  0
   -4.8099    0.9004    0.0000 C   0  0  0  0  0  0  0  0  0  0  0  0
   -5.3119    1.5569    0.0000 O   0  0  0  0  0  0  0  0  0  0  0  0
   -4.9225   -0.5412    0.0000 C   0  0  0  0  0  0  0  0  0  0  0  0
   -1.8861    1.2455    0.0000 C   0  0  0  0  0  0  0  0  0  0  0  0
   -1.9011    2.0975    0.0000 C   0  0  0  0  0  0  0  0  0  0  0  0
   -1.0341    1.2605    0.0000 C   0  0  0  0  0  0  0  0  0  0  0  0
   -1.0493    2.1123    0.0000 N   0  0  0  0  0  0  0  0  0  0  0  0
   -1.2135    0.8004    0.0000 C   0  0  0  0  0  0  0  0  0  0  0  0
   -0.3336    2.5746    0.0000 C   0  0  0  0  0  0  0  0  0  0  0  0
    0.4247    2.1860    0.0000 C   0  0  0  0  0  0  0  0  0  0  0  0
    0.4650    1.3361    0.0000 C   0  0  0  0  0  0  0  0  0  0  0  0
    1.2224    0.9476    0.0000 C   0  0  0  0  0  0  0  0  0  0  0  0
    1.9391    1.4101    0.0000 C   0  0  0  0  0  0  0  0  0  0  0  0
    1.8935    2.2653    0.0000 C   0  0  0  0  0  0  0  0  0  0  0  0
    1.1358    2.6499    0.0000 C   0  0  0  0  0  0  0  0  0  0  0  0
   -1.0155    0.3697    0.0000 O   0  0  0  0  0  0  0  0  0  0  0  0
    0.1117   -0.2195    0.0000 O   0  0  0  0  0  0  0  0  0  0  0  0
   -2.9665    0.8875    0.0000 H   0  0  0  0  0  0  0  0  0  0  0  0
 13 14  1  0
  1 15  2  0
  2 16  1  1
  7 17  1  6
  9 18  1  6
 13 19  2  0
 11 20  1  6
 14 21  1  1
 12 22  2  0
  8 23  1  6
 23 24  1  0
  4 25  1  0
 26 18  1  0
 26 27  1  0
 26 31  1  0
 27 28  1  0
 28 29  1  0
 29 30  1  0
 30 31  1  0
 28 32  1  1
 30 33  1  1
 33 34  1  0
 33 35  1  0
 26 36  1  6
  6 37  1  0
 37 38  1  0
 25 38  1  0
 38 39  2  0
  6 40  1  6
 25 41  1  0
 42 41  1  0
  1  2  1  0
  1  3  1  0
  2  4  1  0
 41 43  1  0
 43 44  1  0
 44 42  1  0
  3  5  1  0
  3 45  1  6
  4  6  1  0
 44 46  1  0
  5  7  1  0
 46 47  1  0
  6  8  1  0
 47 48  2  0
  7  9  1  0
 48 49  1  0
  8 10  1  0
 49 50  2  0
  9 11  1  0
 50 51  1  0
 10 12  1  0
 51 52  2  0
 52 47  1  0
 11 13  1  0
 12 14  1  0
  7 53  1  0
 31 54  1  6
  4 55  1  6
M  END

> <chembl_id>
CHEMBL572713

> <chembl_pref_name>
None


$$$$

     RDKit          2D

 59 64  0  0  0  0  0  0  0  0999 V2000
   -3.0572  -11.7450    0.0000 C   0  0  0  0  0  0  0  0  0  0  0  0
   -3.7661  -12.1906    0.0000 C   0  0  0  0  0  0  0  0  0  0  0  0
   -2.3649  -12.1798    0.0000 C   0  0  0  0  0  0  0  0  0  0  0  0
   -3.6607  -13.0088    0.0000 C   0  0  0  0  0  0  0  0  0  0  0  0
   -2.3550  -12.8822    0.0000 C   0  0  0  0  0  0  0  0  0  0  0  0
   -4.4167  -13.3421    0.0000 C   0  0  0  0  0  0  0  0  0  0  0  0
   -1.7177  -13.3230    0.0000 C   0  0  0  0  0  0  0  0  0  0  0  0
   -4.4100  -14.1684    0.0000 C   0  0  0  0  0  0  0  0  0  0  0  0
   -1.7120  -14.1449    0.0000 C   0  0  0  0  0  0  0  0  0  0  0  0
   -3.6467  -14.4885    0.0000 O   0  0  0  0  0  0  0  0  0  0  0  0
   -2.4757  -14.4844    0.0000 C   0  0  0  0  0  0  0  0  0  0  0  0
   -3.6320  -15.2390    0.0000 C   0  0  0  0  0  0  0  0  0  0  0  0
   -2.3576  -15.2884    0.0000 C   0  0  0  0  0  0  0  0  0  0  0  0
   -3.0555  -15.7373    0.0000 C   0  0  0  0  0  0  0  0  0  0  0  0
   -3.0585  -10.9183    0.0000 O   0  0  0  0  0  0  0  0  0  0  0  0
   -4.5052  -11.8455    0.0000 C   0  0  0  0  0  0  0  0  0  0  0  0
   -0.9258  -13.5350    0.0000 C   0  0  0  0  0  0  0  0  0  0  0  0
   -1.0276  -14.5912    0.0000 O   0  0  0  0  0  0  0  0  0  0  0  0
   -1.6125  -15.6353    0.0000 O   0  0  0  0  0  0  0  0  0  0  0  0
   -3.1882  -14.0807    0.0000 C   0  0  0  0  0  0  0  0  0  0  0  0
   -3.0518  -16.5620    0.0000 C   0  0  0  0  0  0  0  0  0  0  0  0
   -4.4955  -15.6517    0.0000 O   0  0  0  0  0  0  0  0  0  0  0  0
   -5.0969  -14.6321    0.0000 C   0  0  0  0  0  0  0  0  0  0  0  0
   -5.8310  -14.2626    0.0000 C   0  0  0  0  0  0  0  0  0  0  0  0
   -3.0152  -12.5368    0.0000 N   0  0  0  0  0  0  0  0  0  0  0  0
   -0.2112  -14.6098    0.0000 C   0  0  0  0  0  0  0  0  0  0  0  0
    0.1826  -15.3242    0.0000 O   0  0  0  0  0  0  0  0  0  0  0  0
    0.9957  -15.3470    0.0000 C   0  0  0  0  0  0  0  0  0  0  0  0
    1.4199  -14.6475    0.0000 C   0  0  0  0  0  0  0  0  0  0  0  0
    1.0261  -13.9331    0.0000 C   0  0  0  0  0  0  0  0  0  0  0  0
    0.2057  -13.9094    0.0000 C   0  0  0  0  0  0  0  0  0  0  0  0
    1.3932  -16.0656    0.0000 C   0  0  0  0  0  0  0  0  0  0  0  0
    1.4511  -13.2327    0.0000 N   0  0  0  0  0  0  0  0  0  0  0  0
    2.2729  -13.2488    0.0000 C   0  0  0  0  0  0  0  0  0  0  0  0
    1.0546  -12.5087    0.0000 C   0  0  0  0  0  0  0  0  0  0  0  0
   -0.7295  -15.4650    0.0000 H   0  0  0  0  0  0  0  0  0  0  0  0
   -5.1063  -12.8893    0.0000 O   0  0  0  0  0  0  0  0  0  0  0  0
   -5.1090  -12.0775    0.0000 C   0  0  0  0  0  0  0  0  0  0  0  0
   -5.6108  -11.4212    0.0000 O   0  0  0  0  0  0  0  0  0  0  0  0
   -5.2214  -13.5185    0.0000 C   0  0  0  0  0  0  0  0  0  0  0  0
   -2.1864  -11.7324    0.0000 C   0  0  0  0  0  0  0  0  0  0  0  0
   -2.2014  -10.8808    0.0000 C   0  0  0  0  0  0  0  0  0  0  0  0
   -1.3348  -11.7175    0.0000 C   0  0  0  0  0  0  0  0  0  0  0  0
   -1.3499  -10.8661    0.0000 N   0  0  0  0  0  0  0  0  0  0  0  0
   -1.5141  -12.1774    0.0000 C   0  0  0  0  0  0  0  0  0  0  0  0
   -0.6346  -10.4039    0.0000 C   0  0  0  0  0  0  0  0  0  0  0  0
   -0.6108   -9.5527    0.0000 C   0  0  0  0  0  0  0  0  0  0  0  0
    0.1384   -9.1539    0.0000 C   0  0  0  0  0  0  0  0  0  0  0  0
    0.1627   -8.3034    0.0000 C   0  0  0  0  0  0  0  0  0  0  0  0
   -0.5631   -7.8561    0.0000 N   0  0  0  0  0  0  0  0  0  0  0  0
   -1.3317   -9.1192    0.0000 C   0  0  0  0  0  0  0  0  0  0  0  0
   -1.3123   -8.2691    0.0000 C   0  0  0  0  0  0  0  0  0  0  0  0
   -2.0378   -7.8292    0.0000 N   0  0  0  0  0  0  0  0  0  0  0  0
   -2.7830   -8.2381    0.0000 C   0  0  0  0  0  0  0  0  0  0  0  0
   -2.7984   -9.0917    0.0000 C   0  0  0  0  0  0  0  0  0  0  0  0
   -2.0722   -9.5277    0.0000 C   0  0  0  0  0  0  0  0  0  0  0  0
   -1.3162  -12.6080    0.0000 O   0  0  0  0  0  0  0  0  0  0  0  0
   -0.1893  -13.1968    0.0000 O   0  0  0  0  0  0  0  0  0  0  0  0
   -3.2661  -12.0900    0.0000 H   0  0  0  0  0  0  0  0  0  0  0  0
  7 17  1  6
  9 18  1  6
 13 19  2  0
 11 20  1  6
 14 21  1  1
 12 22  2  0
  8 23  1  6
 23 24  1  0
  4 25  1  0
 26 18  1  0
 26 27  1  0
 26 31  1  0
 27 28  1  0
 28 29  1  0
 29 30  1  0
 30 31  1  0
 28 32  1  1
 30 33  1  1
 33 34  1  0
 33 35  1  0
 26 36  1  6
  6 37  1  0
 37 38  1  0
 25 38  1  0
 38 39  2  0
  6 40  1  6
 25 41  1  0
 42 41  1  0
  1  2  1  0
  1  3  1  0
  2  4  1  0
 41 43  1  0
 43 44  1  0
 44 42  1  0
  3  5  1  0
  3 45  1  6
  4  6  1  0
 44 46  1  0
  5  7  1  0
 46 47  1  0
  6  8  1  0
 47 48  2  0
  7  9  1  0
 48 49  1  0
  8 10  1  0
 49 50  2  0
 50 52  1  0
 51 47  1  0
  9 11  1  0
 10 12  1  0
 51 52  1  0
 11 13  1  0
 52 53  2  0
 12 14  1  0
 53 54  1  0
 13 14  1  0
 54 55  2  0
  1 15  2  0
 55 56  1  0
 56 51  2  0
  2 16  1  1
  7 57  1  0
 31 58  1  6
  4 59  1  6
M  END

> <chembl_id>
CHEMBL583091

> <chembl_pref_name>
None


$$$$

     RDKit          2D

 60 65  0  0  0  0  0  0  0  0999 V2000
   -2.4970  -22.4123    0.0000 C   0  0  0  0  0  0  0  0  0  0  0  0
   -3.2057  -22.8577    0.0000 C   0  0  0  0  0  0  0  0  0  0  0  0
   -1.8051  -22.8470    0.0000 C   0  0  0  0  0  0  0  0  0  0  0  0
   -3.1003  -23.6756    0.0000 C   0  0  0  0  0  0  0  0  0  0  0  0
   -1.7951  -23.5489    0.0000 C   0  0  0  0  0  0  0  0  0  0  0  0
   -3.8559  -24.0087    0.0000 C   0  0  0  0  0  0  0  0  0  0  0  0
   -1.1580  -23.9897    0.0000 C   0  0  0  0  0  0  0  0  0  0  0  0
   -3.8493  -24.8346    0.0000 C   0  0  0  0  0  0  0  0  0  0  0  0
   -1.1524  -24.8113    0.0000 C   0  0  0  0  0  0  0  0  0  0  0  0
   -3.0863  -25.1546    0.0000 O   0  0  0  0  0  0  0  0  0  0  0  0
   -1.9157  -25.1506    0.0000 C   0  0  0  0  0  0  0  0  0  0  0  0
   -3.0716  -25.9049    0.0000 C   0  0  0  0  0  0  0  0  0  0  0  0
   -1.7977  -25.9543    0.0000 C   0  0  0  0  0  0  0  0  0  0  0  0
   -2.4953  -26.4031    0.0000 C   0  0  0  0  0  0  0  0  0  0  0  0
   -2.4983  -21.5860    0.0000 O   0  0  0  0  0  0  0  0  0  0  0  0
   -3.9444  -22.5128    0.0000 C   0  0  0  0  0  0  0  0  0  0  0  0
   -0.3664  -24.2016    0.0000 C   0  0  0  0  0  0  0  0  0  0  0  0
   -0.4682  -25.2573    0.0000 O   0  0  0  0  0  0  0  0  0  0  0  0
   -1.0529  -26.3011    0.0000 O   0  0  0  0  0  0  0  0  0  0  0  0
   -2.6280  -24.7471    0.0000 C   0  0  0  0  0  0  0  0  0  0  0  0
   -2.4916  -27.2274    0.0000 C   0  0  0  0  0  0  0  0  0  0  0  0
   -3.9348  -26.3174    0.0000 O   0  0  0  0  0  0  0  0  0  0  0  0
   -4.5359  -25.2983    0.0000 C   0  0  0  0  0  0  0  0  0  0  0  0
   -5.2697  -24.9289    0.0000 C   0  0  0  0  0  0  0  0  0  0  0  0
   -2.4550  -23.2038    0.0000 N   0  0  0  0  0  0  0  0  0  0  0  0
    0.3479  -25.2760    0.0000 C   0  0  0  0  0  0  0  0  0  0  0  0
    0.7414  -25.9900    0.0000 O   0  0  0  0  0  0  0  0  0  0  0  0
    1.5542  -26.0129    0.0000 C   0  0  0  0  0  0  0  0  0  0  0  0
    1.9782  -25.3135    0.0000 C   0  0  0  0  0  0  0  0  0  0  0  0
    1.5846  -24.5995    0.0000 C   0  0  0  0  0  0  0  0  0  0  0  0
    0.7646  -24.5759    0.0000 C   0  0  0  0  0  0  0  0  0  0  0  0
    1.9516  -26.7312    0.0000 C   0  0  0  0  0  0  0  0  0  0  0  0
    2.0095  -23.8995    0.0000 N   0  0  0  0  0  0  0  0  0  0  0  0
    2.8310  -23.9156    0.0000 C   0  0  0  0  0  0  0  0  0  0  0  0
    1.6131  -23.1756    0.0000 C   0  0  0  0  0  0  0  0  0  0  0  0
   -0.1705  -26.1311    0.0000 H   0  0  0  0  0  0  0  0  0  0  0  0
   -4.5453  -23.5561    0.0000 O   0  0  0  0  0  0  0  0  0  0  0  0
   -4.5480  -22.7446    0.0000 C   0  0  0  0  0  0  0  0  0  0  0  0
   -5.0496  -22.0886    0.0000 O   0  0  0  0  0  0  0  0  0  0  0  0
   -4.6604  -24.1850    0.0000 C   0  0  0  0  0  0  0  0  0  0  0  0
   -1.6265  -22.3998    0.0000 C   0  0  0  0  0  0  0  0  0  0  0  0
   -1.6415  -21.5485    0.0000 C   0  0  0  0  0  0  0  0  0  0  0  0
   -0.7753  -22.3848    0.0000 C   0  0  0  0  0  0  0  0  0  0  0  0
   -0.7906  -21.5339    0.0000 N   0  0  0  0  0  0  0  0  0  0  0  0
   -0.9545  -22.8445    0.0000 C   0  0  0  0  0  0  0  0  0  0  0  0
   -0.0737  -21.0747    0.0000 C   0  0  0  0  0  0  0  0  0  0  0  0
    0.6824  -21.4660    0.0000 C   0  0  0  0  0  0  0  0  0  0  0  0
   -0.1129  -20.2242    0.0000 C   0  0  0  0  0  0  0  0  0  0  0  0
    0.6053  -19.7681    0.0000 C   0  0  0  0  0  0  0  0  0  0  0  0
    0.5665  -18.9185    0.0000 C   0  0  0  0  0  0  0  0  0  0  0  0
   -0.1902  -18.5264    0.0000 N   0  0  0  0  0  0  0  0  0  0  0  0
   -0.8669  -19.8384    0.0000 C   0  0  0  0  0  0  0  0  0  0  0  0
   -0.9087  -18.9904    0.0000 C   0  0  0  0  0  0  0  0  0  0  0  0
   -1.6628  -18.6045    0.0000 N   0  0  0  0  0  0  0  0  0  0  0  0
   -2.3754  -19.0654    0.0000 C   0  0  0  0  0  0  0  0  0  0  0  0
   -2.3294  -19.9163    0.0000 C   0  0  0  0  0  0  0  0  0  0  0  0
   -1.5749  -20.2983    0.0000 C   0  0  0  0  0  0  0  0  0  0  0  0
   -0.7567  -23.2748    0.0000 O   0  0  0  0  0  0  0  0  0  0  0  0
    0.3696  -23.8636    0.0000 O   0  0  0  0  0  0  0  0  0  0  0  0
   -2.7057  -22.7568    0.0000 H   0  0  0  0  0  0  0  0  0  0  0  0
  9 18  1  6
 13 19  2  0
 11 20  1  6
 14 21  1  1
 12 22  2  0
  8 23  1  6
 23 24  1  0
  4 25  1  0
 26 18  1  0
 26 27  1  0
 26 31  1  0
 27 28  1  0
 28 29  1  0
 29 30  1  0
 30 31  1  0
 28 32  1  1
 30 33  1  1
 33 34  1  0
 33 35  1  0
 26 36  1  6
  6 37  1  0
 37 38  1  0
 25 38  1  0
 38 39  2  0
  6 40  1  6
 25 41  1  0
 42 41  1  0
  1  2  1  0
  1  3  1  0
  2  4  1  0
 41 43  1  0
 43 44  1  0
 44 42  1  0
  3  5  1  0
  3 45  1  6
  4  6  1  0
 44 46  1  0
  5  7  1  0
 46 47  1  6
  6  8  1  0
 46 48  1  0
  7  9  1  0
 48 49  2  0
  8 10  1  0
 49 50  1  0
  9 11  1  0
 50 51  2  0
 51 53  1  0
 52 48  1  0
 10 12  1  0
 11 13  1  0
 52 53  1  0
 12 14  1  0
 53 54  2  0
 13 14  1  0
 54 55  1  0
  1 15  2  0
 55 56  2  0
  2 16  1  1
 56 57  1  0
 57 52  2  0
  7 17  1  6
  7 58  1  0
 31 59  1  6
  4 60  1  6
M  END

> <chembl_id>
CHEMBL574784

> <chembl_pref_name>
None


$$$$

     RDKit          2D

 83 87  0  0  0  0  0  0  0  0999 V2000
    1.1583    1.1667    0.0000 C   0  0  0  0  0  0  0  0  0  0  0  0
    1.8728    1.5792    0.0000 C   0  0  0  0  0  0  0  0  0  0  0  0
    2.5873    1.1667    0.0000 C   0  0  0  0  0  0  0  0  0  0  0  0
    1.8728    2.4042    0.0000 N   0  0  0  0  0  0  0  0  0  0  0  0
    2.5873    0.3417    0.0000 C   0  0  0  0  0  0  0  0  0  0  0  0
    1.1583    0.3417    0.0000 C   0  0  0  0  0  0  0  0  0  0  0  0
    0.4439   -0.0708    0.0000 C   0  0  0  0  0  0  0  0  0  0  0  0
    0.4439   -0.8958    0.0000 C   0  0  0  0  0  0  0  0  0  0  0  0
   -0.2706   -1.3083    0.0000 C   0  0  0  0  0  0  0  0  0  0  0  0
    1.1583   -1.3083    0.0000 O   0  0  0  0  0  0  0  0  0  0  0  0
    1.1583   -2.1333    0.0000 C   0  0  0  0  0  0  0  0  0  0  0  0
    0.4439   -2.5458    0.0000 O   0  0  0  0  0  0  0  0  0  0  0  0
    1.8728   -2.5458    0.0000 C   0  0  0  0  0  0  0  0  0  0  0  0
    1.8728   -3.3708    0.0000 C   0  0  0  0  0  0  0  0  0  0  0  0
    2.5873   -2.1333    0.0000 C   0  0  0  0  0  0  0  0  0  0  0  0
    2.5873   -1.3083    0.0000 C   0  0  0  0  0  0  0  0  0  0  0  0
    3.3017   -0.8958    0.0000 C   0  0  0  0  0  0  0  0  0  0  0  0
    1.8728   -0.8958    0.0000 C   0  0  0  0  0  0  0  0  0  0  0  0
    3.3017   -0.0708    0.0000 C   0  0  0  0  0  0  0  0  0  0  0  0
    0.4439    1.5792    0.0000 C   0  0  0  0  0  0  0  0  0  0  0  0
    3.3017    1.5792    0.0000 C   0  0  0  0  0  0  0  0  0  0  0  0
    1.8728   -0.0708    0.0000 O   0  0  0  0  0  0  0  0  0  0  0  0
   -0.2750   -0.4750    0.0000 O   0  0  0  0  0  0  0  0  0  0  0  0
    0.0250    0.6500    0.0000 C   0  0  0  0  0  0  0  0  0  0  0  0
   -0.2706   -2.1333    0.0000 C   0  0  0  0  0  0  0  0  0  0  0  0
    3.3017   -2.5458    0.0000 O   0  0  0  0  0  0  0  0  0  0  0  0
    4.0162   -1.3083    0.0000 O   0  0  0  0  0  0  0  0  0  0  0  0
    4.7307   -0.8958    0.0000 C   0  0  0  0  0  0  0  0  0  0  0  0
    5.4402   -1.3097    0.0000 C   0  0  0  0  0  0  0  0  0  0  0  0
    6.1526   -0.9007    0.0000 C   0  0  0  0  0  0  0  0  0  0  0  0
    6.1568   -0.0753    0.0000 C   0  0  0  0  0  0  0  0  0  0  0  0
    5.4425    0.3394    0.0000 C   0  0  0  0  0  0  0  0  0  0  0  0
    4.7239   -0.0713    0.0000 O   0  0  0  0  0  0  0  0  0  0  0  0
    4.0125   -0.4792    0.0000 H   0  0  0  0  0  0  0  0  0  0  0  0
    4.0125    0.3500    0.0000 O   0  0  0  0  0  0  0  0  0  0  0  0
    3.2958    0.7583    0.0000 C   0  0  0  0  0  0  0  0  0  0  0  0
    5.4374   -2.1347    0.0000 O   0  0  0  0  0  0  0  0  0  0  0  0
    6.8655   -1.3159    0.0000 N   0  0  0  0  0  0  0  0  0  0  0  0
    5.4453    1.1643    0.0000 C   0  0  0  0  0  0  0  0  0  0  0  0
    6.8623   -2.1409    0.0000 C   0  0  0  0  0  0  0  0  0  0  0  0
    7.5815   -0.9061    0.0000 C   0  0  0  0  0  0  0  0  0  0  0  0
    3.3017   -3.3708    0.0000 C   0  0  0  0  0  0  0  0  0  0  0  0
    2.5885   -3.7782    0.0000 O   0  0  0  0  0  0  0  0  0  0  0  0
    2.5865   -4.5996    0.0000 C   0  0  0  0  0  0  0  0  0  0  0  0
    3.2991   -5.0159    0.0000 C   0  0  0  0  0  0  0  0  0  0  0  0
    4.0154   -4.6047    0.0000 C   0  0  0  0  0  0  0  0  0  0  0  0
    4.0191   -3.7770    0.0000 C   0  0  0  0  0  0  0  0  0  0  0  0
    1.8705   -5.0094    0.0000 C   0  0  0  0  0  0  0  0  0  0  0  0
    4.4208   -5.3167    0.0000 O   0  0  0  0  0  0  0  0  0  0  0  0
    2.5833   -2.9542    0.0000 H   0  0  0  0  0  0  0  0  0  0  0  0
    4.7327   -3.3631    0.0000 O   0  0  0  0  0  0  0  0  0  0  0  0
    5.4480   -3.7742    0.0000 C   0  0  0  0  0  0  0  0  0  0  0  0
    6.1617   -3.3603    0.0000 C   0  0  0  0  0  0  0  0  0  0  0  0
    5.4496   -4.5992    0.0000 O   0  0  0  0  0  0  0  0  0  0  0  0
    4.7250   -4.1875    0.0000 C   0  0  0  0  0  0  0  0  0  0  0  0
    4.0041   -6.0287    0.0000 C   0  0  0  0  0  0  0  0  0  0  0  0
    6.8770   -3.7714    0.0000 C   0  0  0  0  0  0  0  0  0  0  0  0
    7.5906   -3.3575    0.0000 O   0  0  0  0  0  0  0  0  0  0  0  0
    8.3059   -3.7686    0.0000 C   0  0  0  0  0  0  0  0  0  0  0  0
    9.0195   -3.3547    0.0000 C   0  0  0  0  0  0  0  0  0  0  0  0
    9.7348   -3.7658    0.0000 O   0  0  0  0  0  0  0  0  0  0  0  0
   10.4485   -3.3519    0.0000 C   0  0  0  0  0  0  0  0  0  0  0  0
   11.1638   -3.7630    0.0000 C   0  0  0  0  0  0  0  0  0  0  0  0
   11.8774   -3.3491    0.0000 C   0  0  0  0  0  0  0  0  0  0  0  0
   12.5927   -3.7602    0.0000 C   0  0  0  0  0  0  0  0  0  0  0  0
   12.5905   -4.5844    0.0000 C   0  0  0  0  0  0  0  0  0  0  0  0
   13.3049   -4.9954    0.0000 C   0  0  0  0  0  0  0  0  0  0  0  0
   13.3003   -3.3449    0.0000 C   0  0  0  0  0  0  0  0  0  0  0  0
   14.0153   -3.7522    0.0000 C   0  0  0  0  0  0  0  0  0  0  0  0
   14.0164   -4.5789    0.0000 C   0  0  0  0  0  0  0  0  0  0  0  0
   14.7289   -4.9891    0.0000 N   0  0  0  0  0  0  0  0  0  0  0  0
   15.4450   -4.5771    0.0000 C   0  0  0  0  0  0  0  0  0  0  0  0
   15.4439   -3.7504    0.0000 C   0  0  0  0  0  0  0  0  0  0  0  0
   14.7268   -3.3356    0.0000 C   0  0  0  0  0  0  0  0  0  0  0  0
   14.7289   -5.8141    0.0000 C   0  0  0  0  0  0  0  0  0  0  0  0
   14.0144   -6.2265    0.0000 C   0  0  0  0  0  0  0  0  0  0  0  0
   14.7246   -2.5106    0.0000 O   0  0  0  0  0  0  0  0  0  0  0  0
   16.1583   -3.3377    0.0000 C   0  0  0  0  0  0  0  0  0  0  0  0
   16.8729   -3.7500    0.0000 O   0  0  0  0  0  0  0  0  0  0  0  0
   16.1580   -2.5127    0.0000 O   0  0  0  0  0  0  0  0  0  0  0  0
    2.5873    2.8167    0.0000 O   0  0  0  0  0  0  0  0  0  0  0  0
    2.5873    3.6417    0.0000 C   0  0  0  0  0  0  0  0  0  0  0  0
    3.3017    4.0625    0.0000 C   0  0  0  0  0  0  0  0  0  0  0  0
 38 41  1  0
  2  3  1  0
 26 42  1  0
 42 43  1  0
  3 21  1  6
 10 11  1  0
  6 22  1  1
  1  6  1  0
  7 23  1  1
 42 47  1  0
 43 44  1  0
 44 45  1  0
 45 46  1  0
 46 47  1  0
 11 12  2  0
 44 48  1  6
  7 24  1  0
 46 49  1  0
  1  2  1  0
 42 50  1  6
  9 25  1  0
 47 51  1  6
 11 13  1  0
 51 52  1  0
 15 26  1  6
 52 53  1  0
  6  7  1  0
 52 54  2  0
 17 27  1  6
 46 55  1  6
 13 14  1  1
 49 56  1  0
 27 28  1  0
 53 57  1  0
 28 29  1  0
 57 58  1  0
  2  4  2  0
 58 59  1  0
 13 15  1  0
 59 60  1  0
  7  8  1  0
 60 61  1  0
 15 16  1  0
 61 62  1  0
 62 63  1  0
 28 33  1  0
 63 64  1  0
 29 30  1  0
 64 65  1  0
 30 31  1  0
 65 66  2  0
 31 32  1  0
 66 67  1  0
 67 70  2  0
 32 33  1  0
 69 68  2  0
 68 65  1  0
 69 70  1  0
 16 17  1  0
 28 34  1  1
  8  9  1  6
 19 35  1  1
 16 18  1  6
 19 36  1  0
 69 74  1  0
 70 71  1  0
 71 72  1  0
 72 73  2  0
 73 74  1  0
  3  5  1  0
 71 75  1  0
 29 37  1  1
 75 76  1  0
 17 19  1  0
 74 77  2  0
 30 38  1  6
 73 78  1  0
 19  5  1  0
 78 79  1  0
 32 39  1  6
 78 80  2  0
  8 10  1  0
  4 81  1  0
 38 40  1  0
 81 82  1  0
  1 20  1  1
 82 83  1  0
M  END

> <chembl_id>
CHEMBL1222123

> <chembl_pref_name>
None


$$$$

     RDKit          2D

 85 91  0  0  0  0  0  0  0  0999 V2000
    5.8856   -9.7965    0.0000 C   0  0  0  0  0  0  0  0  0  0  0  0
    5.8856   -8.9724    0.0000 C   0  0  0  0  0  0  0  0  0  0  0  0
    5.1744   -8.5645    0.0000 O   0  0  0  0  0  0  0  0  0  0  0  0
    4.4631   -8.9724    0.0000 C   0  0  0  0  0  0  0  0  0  0  0  0
    4.4631   -9.7965    0.0000 C   0  0  0  0  0  0  0  0  0  0  0  0
    5.1744  -10.2126    0.0000 C   0  0  0  0  0  0  0  0  0  0  0  0
    6.5987   -8.5592    0.0000 O   0  0  0  0  0  0  0  0  0  0  0  0
    3.7501   -8.5592    0.0000 C   0  0  0  0  0  0  0  0  0  0  0  0
    5.1744  -11.0367    0.0000 N   0  0  0  0  0  0  0  0  0  0  0  0
    4.4607  -11.4487    0.0000 C   0  0  0  0  0  0  0  0  0  0  0  0
    5.8880  -11.4487    0.0000 C   0  0  0  0  0  0  0  0  0  0  0  0
    3.7483  -10.2064    0.0000 O   0  0  0  0  0  0  0  0  0  0  0  0
    6.6005  -10.2064    0.0000 O   0  0  0  0  0  0  0  0  0  0  0  0
    3.0358   -9.7922    0.0000 C   0  0  0  0  0  0  0  0  0  0  0  0
    2.3210  -10.2021    0.0000 C   0  0  0  0  0  0  0  0  0  0  0  0
    1.6117   -9.7845    0.0000 C   0  0  0  0  0  0  0  0  0  0  0  0
    0.8974  -10.1937    0.0000 C   0  0  0  0  0  0  0  0  0  0  0  0
    0.8946  -11.0186    0.0000 C   0  0  0  0  0  0  0  0  0  0  0  0
    1.6121  -11.4326    0.0000 C   0  0  0  0  0  0  0  0  0  0  0  0
    2.3235  -11.0210    0.0000 C   0  0  0  0  0  0  0  0  0  0  0  0
    7.3129   -9.7922    0.0000 C   0  0  0  0  0  0  0  0  0  0  0  0
    8.0278  -10.2021    0.0000 C   0  0  0  0  0  0  0  0  0  0  0  0
    7.3105   -8.9681    0.0000 O   0  0  0  0  0  0  0  0  0  0  0  0
    8.0262  -11.0252    0.0000 C   0  0  0  0  0  0  0  0  0  0  0  0
    8.7402  -11.4351    0.0000 C   0  0  0  0  0  0  0  0  0  0  0  0
    9.4537  -11.0209    0.0000 C   0  0  0  0  0  0  0  0  0  0  0  0
    9.4485  -10.1926    0.0000 C   0  0  0  0  0  0  0  0  0  0  0  0
    8.7340   -9.7865    0.0000 C   0  0  0  0  0  0  0  0  0  0  0  0
    4.7067   -3.0143    0.0000 C   0  0  0  0  0  0  0  0  0  0  0  0
    4.7067   -2.1907    0.0000 C   0  0  0  0  0  0  0  0  0  0  0  0
    5.4215   -1.7810    0.0000 C   0  0  0  0  0  0  0  0  0  0  0  0
    6.1365   -2.1948    0.0000 C   0  0  0  0  0  0  0  0  0  0  0  0
    6.1365   -3.0185    0.0000 C   0  0  0  0  0  0  0  0  0  0  0  0
    6.8514   -3.4282    0.0000 C   0  0  0  0  0  0  0  0  0  0  0  0
    6.8514   -4.2518    0.0000 C   0  0  0  0  0  0  0  0  0  0  0  0
    6.1365   -4.6656    0.0000 C   0  0  0  0  0  0  0  0  0  0  0  0
    6.1365   -5.4893    0.0000 C   0  0  0  0  0  0  0  0  0  0  0  0
    5.4215   -5.9032    0.0000 C   0  0  0  0  0  0  0  0  0  0  0  0
    4.7067   -5.4934    0.0000 O   0  0  0  0  0  0  0  0  0  0  0  0
    4.7067   -4.6699    0.0000 C   0  0  0  0  0  0  0  0  0  0  0  0
    5.4234   -6.7310    0.0000 O   0  0  0  0  0  0  0  0  0  0  0  0
    5.4234   -0.9532    0.0000 C   0  0  0  0  0  0  0  0  0  0  0  0
    3.9904   -1.7756    0.0000 O   0  0  0  0  0  0  0  0  0  0  0  0
    6.9350   -2.8011    0.0000 C   0  0  0  0  0  0  0  0  0  0  0  0
    6.5462   -2.2994    0.0000 O   0  0  0  0  0  0  0  0  0  0  0  0
    6.3288   -1.4967    0.0000 C   0  0  0  0  0  0  0  0  0  0  0  0
    7.5663   -3.0101    0.0000 O   0  0  0  0  0  0  0  0  0  0  0  0
    8.2854   -3.4200    0.0000 C   0  0  0  0  0  0  0  0  0  0  0  0
    8.2881   -4.2486    0.0000 O   0  0  0  0  0  0  0  0  0  0  0  0
    9.0030   -4.6584    0.0000 C   0  0  0  0  0  0  0  0  0  0  0  0
    9.7201   -4.2440    0.0000 C   0  0  0  0  0  0  0  0  0  0  0  0
    9.7175   -3.4153    0.0000 C   0  0  0  0  0  0  0  0  0  0  0  0
    8.9978   -3.0008    0.0000 C   0  0  0  0  0  0  0  0  0  0  0  0
    9.0045   -5.4862    0.0000 C   0  0  0  0  0  0  0  0  0  0  0  0
   10.4335   -2.9998    0.0000 N   0  0  0  0  0  0  0  0  0  0  0  0
   11.1513   -3.4122    0.0000 C   0  0  0  0  0  0  0  0  0  0  0  0
   10.4317   -2.1720    0.0000 C   0  0  0  0  0  0  0  0  0  0  0  0
    8.9940   -2.1730    0.0000 O   0  0  0  0  0  0  0  0  0  0  0  0
    8.0680   -2.6171    0.0000 H   0  0  0  0  0  0  0  0  0  0  0  0
    3.7827   -5.0503    0.0000 C   0  0  0  0  0  0  0  0  0  0  0  0
    7.5663   -4.6656    0.0000 C   0  0  0  0  0  0  0  0  0  0  0  0
    6.7218   -5.2510    0.0000 O   0  0  0  0  0  0  0  0  0  0  0  0
    4.2886   -5.3847    0.0000 C   0  0  0  0  0  0  0  0  0  0  0  0
    4.6985   -6.1039    0.0000 C   0  0  0  0  0  0  0  0  0  0  0  0
    5.3367   -5.2755    0.0000 C   0  0  0  0  0  0  0  0  0  0  0  0
    6.6928   -6.0782    0.0000 C   0  0  0  0  0  0  0  0  0  0  0  0
    5.9616   -6.4660    0.0000 O   0  0  0  0  0  0  0  0  0  0  0  0
    5.9308   -7.2895    0.0000 C   0  0  0  0  0  0  0  0  0  0  0  0
    6.6307   -7.7321    0.0000 C   0  0  0  0  0  0  0  0  0  0  0  0
    7.3634   -7.3449    0.0000 C   0  0  0  0  0  0  0  0  0  0  0  0
    7.3962   -6.5151    0.0000 C   0  0  0  0  0  0  0  0  0  0  0  0
    7.5747   -8.1399    0.0000 O   0  0  0  0  0  0  0  0  0  0  0  0
    8.1892   -7.3414    0.0000 C   0  0  0  0  0  0  0  0  0  0  0  0
    8.3738   -8.3558    0.0000 C   0  0  0  0  0  0  0  0  0  0  0  0
    7.4074   -5.6565    0.0000 H   0  0  0  0  0  0  0  0  0  0  0  0
    5.1984   -7.6754    0.0000 C   0  0  0  0  0  0  0  0  0  0  0  0
    3.9956   -4.2472    0.0000 C   0  0  0  0  0  0  0  0  0  0  0  0
    3.9959   -3.4282    0.0000 C   0  0  0  0  0  0  0  0  0  0  0  0
    3.2170   -3.1747    0.0000 O   0  0  0  0  0  0  0  0  0  0  0  0
    2.7352   -3.8372    0.0000 C   0  0  0  0  0  0  0  0  0  0  0  0
    3.2164   -4.5000    0.0000 O   0  0  0  0  0  0  0  0  0  0  0  0
    1.9074   -3.8369    0.0000 O   0  0  0  0  0  0  0  0  0  0  0  0
    3.5820   -2.7113    0.0000 H   0  0  0  0  0  0  0  0  0  0  0  0
    5.6705   -8.1768    0.0000 H   0  0  0  0  0  0  0  0  0  0  0  0
    5.4219   -3.4254    0.0000 C   0  0  0  0  0  0  0  0  0  0  0  0
  1  2  1  0
  1  6  1  0
  2  3  1  0
  3  4  1  0
  4  5  1  0
  5  6  1  0
  2  7  1  0
  4  8  1  1
  6  9  1  1
  9 10  1  0
  9 11  1  0
  5 12  1  6
  1 13  1  6
 12 14  1  0
 14 15  1  0
 15 16  2  0
 16 17  1  0
 17 18  2  0
 18 19  1  0
 19 20  2  0
 20 15  1  0
 13 21  1  0
 21 22  1  0
 21 23  2  0
 22 24  2  0
 24 25  1  0
 25 26  2  0
 26 27  1  0
 27 28  2  0
 28 22  1  0
 78 29  1  0
 29 30  1  0
 30 31  1  0
 31 32  1  0
 32 33  1  0
 33 34  1  0
 34 35  1  0
 35 36  1  0
 36 37  1  0
 37 38  1  0
 38 39  1  0
 39 40  1  0
 40 77  1  0
 38 41  2  0
 31 42  1  6
 30 43  2  0
 33 44  1  0
 33 45  1  6
 45 46  1  0
 34 47  1  6
 47 48  1  0
 48 49  1  0
 48 53  1  0
 49 50  1  0
 50 51  1  0
 51 52  1  0
 52 53  1  0
 50 54  1  1
 52 55  1  1
 55 56  1  0
 55 57  1  0
 53 58  1  6
 48 59  1  6
 77 60  1  6
 35 61  1  1
 36 62  1  1
 40 63  1  1
 63 64  1  0
 37 65  1  1
 62 66  1  0
 66 67  1  0
 66 71  1  0
 67 68  1  0
 68 69  1  0
 69 70  1  0
 70 71  1  0
 69  7  1  1
 70 72  1  1
 70 73  1  0
 72 74  1  0
 66 75  1  6
 68 76  1  6
 77 78  1  0
 78 79  1  0
 79 80  1  0
 80 81  1  0
 81 77  1  0
 80 82  2  0
 78 83  1  1
  2 84  1  6
 29 85  1  6
M  END

> <chembl_id>
CHEMBL2440135

> <chembl_pref_name>
None


$$$$

     RDKit          2D

 60 64  0  0  0  0  0  0  0  0999 V2000
   14.4575  -10.2251    0.0000 C   0  0  0  0  0  0  0  0  0  0  0  0
   15.1633   -9.8223    0.0000 C   0  0  0  0  0  0  0  0  0  0  0  0
   14.8539   -9.1049    0.0000 C   0  0  0  0  0  0  0  0  0  0  0  0
   14.1905   -8.9374    0.0000 C   0  0  0  0  0  0  0  0  0  0  0  0
   13.8563   -9.6782    0.0000 O   0  0  0  0  0  0  0  0  0  0  0  0
   18.7129  -11.0568    0.0000 C   0  0  0  0  0  0  0  0  0  0  0  0
   16.5873  -12.2579    0.0000 C   0  0  0  0  0  0  0  0  0  0  0  0
   15.1634  -12.2579    0.0000 C   0  0  0  0  0  0  0  0  0  0  0  0
   15.8774  -12.6665    0.0000 C   0  0  0  0  0  0  0  0  0  0  0  0
   18.7417  -10.2397    0.0000 C   0  0  0  0  0  0  0  0  0  0  0  0
   17.2890  -11.0403    0.0000 C   0  0  0  0  0  0  0  0  0  0  0  0
   16.5750  -11.4407    0.0000 C   0  0  0  0  0  0  0  0  0  0  0  0
   15.1634   -8.9974    0.0000 C   0  0  0  0  0  0  0  0  0  0  0  0
   15.1634  -11.4407    0.0000 O   0  0  0  0  0  0  0  0  0  0  0  0
   15.8692   -8.5929    0.0000 C   0  0  0  0  0  0  0  0  0  0  0  0
   17.9947  -11.4407    0.0000 O   0  0  0  0  0  0  0  0  0  0  0  0
   19.4599   -9.8558    0.0000 C   0  0  0  0  0  0  0  0  0  0  0  0
   17.2890  -10.2231    0.0000 C   0  0  0  0  0  0  0  0  0  0  0  0
   19.4104  -11.4985    0.0000 O   0  0  0  0  0  0  0  0  0  0  0  0
   14.4577  -11.0403    0.0000 C   0  0  0  0  0  0  0  0  0  0  0  0
   16.5750   -8.9974    0.0000 C   0  0  0  0  0  0  0  0  0  0  0  0
   16.5750   -9.8145    0.0000 C   0  0  0  0  0  0  0  0  0  0  0  0
   20.1533  -10.2892    0.0000 C   0  0  0  0  0  0  0  0  0  0  0  0
   19.4929   -9.0386    0.0000 N   0  0  0  0  0  0  0  0  0  0  0  0
   14.4659  -12.6665    0.0000 O   0  0  0  0  0  0  0  0  0  0  0  0
   20.1285  -11.1064    0.0000 C   0  0  0  0  0  0  0  0  0  0  0  0
   15.8692   -7.7757    0.0000 O   0  0  0  0  0  0  0  0  0  0  0  0
   17.5036   -9.5463    0.0000 O   0  0  0  0  0  0  0  0  0  0  0  0
   13.7395  -10.6235    0.0000 C   0  0  0  0  0  0  0  0  0  0  0  0
   15.8816  -13.4837    0.0000 C   0  0  0  0  0  0  0  0  0  0  0  0
   15.8692  -11.0321    0.0000 C   0  0  0  0  0  0  0  0  0  0  0  0
   17.9947  -10.6317    0.0000 C   0  0  0  0  0  0  0  0  0  0  0  0
   13.7519  -11.4489    0.0000 C   0  0  0  0  0  0  0  0  0  0  0  0
   18.7995   -8.6053    0.0000 C   0  0  0  0  0  0  0  0  0  0  0  0
   20.2152   -8.6548    0.0000 C   0  0  0  0  0  0  0  0  0  0  0  0
   20.8219  -11.5397    0.0000 C   0  0  0  0  0  0  0  0  0  0  0  0
   13.7519  -12.2579    0.0000 C   0  0  0  0  0  0  0  0  0  0  0  0
   18.7046  -11.8740    0.0000 H   0  0  0  0  0  0  0  0  0  0  0  0
   18.7376   -9.4225    0.0000 O   0  0  0  0  0  0  0  0  0  0  0  0
   16.9794   -8.2875    0.0000 C   0  0  0  0  0  0  0  0  0  0  0  0
   17.4994   -8.8323    0.0000 C   0  0  0  0  0  0  0  0  0  0  0  0
   17.2978  -12.6616    0.0000 O   0  0  0  0  0  0  0  0  0  0  0  0
   13.9587   -8.4588    0.0000 O   0  0  0  0  0  0  0  0  0  0  0  0
   14.8498   -8.2875    0.0000 N   0  0  0  0  0  0  0  0  0  0  0  0
   15.7412   -9.5752    0.0000 C   0  0  0  0  0  0  0  0  0  0  0  0
   15.7371  -10.3965    0.0000 H   0  0  0  0  0  0  0  0  0  0  0  0
   14.1400   -7.8825    0.0000 C   0  0  0  0  0  0  0  0  0  0  0  0
   14.1359   -7.0653    0.0000 C   0  0  0  0  0  0  0  0  0  0  0  0
   13.4300   -8.2833    0.0000 O   0  0  0  0  0  0  0  0  0  0  0  0
   13.4261   -6.6603    0.0000 S   0  0  0  0  0  0  0  0  0  0  0  0
   13.4220   -5.8431    0.0000 C   0  0  0  0  0  0  0  0  0  0  0  0
   14.1274   -5.4345    0.0000 C   0  0  0  0  0  0  0  0  0  0  0  0
   14.1236   -4.6181    0.0000 N   0  0  0  0  0  0  0  0  0  0  0  0
   12.7126   -5.4439    0.0000 N   0  0  0  0  0  0  0  0  0  0  0  0
   12.7053   -4.6288    0.0000 C   0  0  0  0  0  0  0  0  0  0  0  0
   13.4143   -4.2144    0.0000 C   0  0  0  0  0  0  0  0  0  0  0  0
   13.4089   -3.3950    0.0000 C   0  0  0  0  0  0  0  0  0  0  0  0
   12.6952   -2.9891    0.0000 C   0  0  0  0  0  0  0  0  0  0  0  0
   11.9855   -3.4086    0.0000 C   0  0  0  0  0  0  0  0  0  0  0  0
   11.9945   -4.2266    0.0000 C   0  0  0  0  0  0  0  0  0  0  0  0
  1  2  1  0
  2  3  1  0
  3  4  1  0
  4  5  1  0
  5  1  1  0
  7 12  1  0
  8  9  1  0
  9  7  1  0
 10  6  1  0
 11 16  1  6
 12 11  1  0
 13 15  1  0
 14  8  1  0
  2 13  1  0
 15 21  1  0
 16  6  1  0
 17 10  1  0
 18 11  1  0
 19  6  1  0
 20 14  1  0
 21 22  1  0
 22 18  1  0
 23 26  1  0
 17 24  1  1
 25  8  2  0
 26 19  1  0
 27 15  2  0
 18 28  1  1
  1 29  1  6
  9 30  1  1
 12 31  1  6
 32 18  1  0
 20 33  1  6
 34 24  1  0
 35 24  1  0
 26 36  1  1
 37 33  1  0
  6 38  1  6
 23 17  1  0
  1 20  1  0
 10 39  1  6
 21 40  1  6
 28 41  1  0
  7 42  2  0
  4 43  2  0
  3 44  1  0
 13 45  1  1
  2 46  1  1
 44 47  1  0
 47 48  1  0
 47 49  2  0
 48 50  1  0
 50 51  1  0
 51 52  2  0
 52 53  1  0
 53 56  2  0
 55 54  2  0
 54 51  1  0
 55 56  1  0
 56 57  1  0
 57 58  2  0
 58 59  1  0
 59 60  2  0
 60 55  1  0
M  END

> <chembl_id>
CHEMBL3342548

> <chembl_pref_name>
None


$$$$

     RDKit          2D

 64 68  0  0  0  0  0  0  0  0999 V2000
    3.2149  -24.9552    0.0000 C   0  0  0  0  0  0  0  0  0  0  0  0
    3.9207  -24.5523    0.0000 C   0  0  0  0  0  0  0  0  0  0  0  0
    3.6113  -23.8349    0.0000 C   0  0  0  0  0  0  0  0  0  0  0  0
    2.9479  -23.6675    0.0000 C   0  0  0  0  0  0  0  0  0  0  0  0
    2.6137  -24.4083    0.0000 O   0  0  0  0  0  0  0  0  0  0  0  0
    7.4703  -25.7869    0.0000 C   0  0  0  0  0  0  0  0  0  0  0  0
    5.3448  -26.9879    0.0000 C   0  0  0  0  0  0  0  0  0  0  0  0
    3.9209  -26.9879    0.0000 C   0  0  0  0  0  0  0  0  0  0  0  0
    4.6349  -27.3965    0.0000 C   0  0  0  0  0  0  0  0  0  0  0  0
    7.4992  -24.9697    0.0000 C   0  0  0  0  0  0  0  0  0  0  0  0
    6.0464  -25.7704    0.0000 C   0  0  0  0  0  0  0  0  0  0  0  0
    5.3324  -26.1708    0.0000 C   0  0  0  0  0  0  0  0  0  0  0  0
    3.9209  -23.7274    0.0000 C   0  0  0  0  0  0  0  0  0  0  0  0
    3.9209  -26.1708    0.0000 O   0  0  0  0  0  0  0  0  0  0  0  0
    4.6266  -23.3230    0.0000 C   0  0  0  0  0  0  0  0  0  0  0  0
    6.7521  -26.1708    0.0000 O   0  0  0  0  0  0  0  0  0  0  0  0
    8.2173  -24.5859    0.0000 C   0  0  0  0  0  0  0  0  0  0  0  0
    6.0464  -24.9532    0.0000 C   0  0  0  0  0  0  0  0  0  0  0  0
    8.1678  -26.2285    0.0000 O   0  0  0  0  0  0  0  0  0  0  0  0
    3.2151  -25.7704    0.0000 C   0  0  0  0  0  0  0  0  0  0  0  0
    5.3324  -23.7274    0.0000 C   0  0  0  0  0  0  0  0  0  0  0  0
    5.3324  -24.5446    0.0000 C   0  0  0  0  0  0  0  0  0  0  0  0
    8.9107  -25.0193    0.0000 C   0  0  0  0  0  0  0  0  0  0  0  0
    8.2503  -23.7687    0.0000 N   0  0  0  0  0  0  0  0  0  0  0  0
    3.2234  -27.3965    0.0000 O   0  0  0  0  0  0  0  0  0  0  0  0
    8.8859  -25.8365    0.0000 C   0  0  0  0  0  0  0  0  0  0  0  0
    4.6266  -22.5058    0.0000 O   0  0  0  0  0  0  0  0  0  0  0  0
    6.2610  -24.2764    0.0000 O   0  0  0  0  0  0  0  0  0  0  0  0
    2.4970  -25.3536    0.0000 C   0  0  0  0  0  0  0  0  0  0  0  0
    4.6390  -28.2137    0.0000 C   0  0  0  0  0  0  0  0  0  0  0  0
    4.6266  -25.7622    0.0000 C   0  0  0  0  0  0  0  0  0  0  0  0
    6.7521  -25.3618    0.0000 C   0  0  0  0  0  0  0  0  0  0  0  0
    2.5094  -26.1790    0.0000 C   0  0  0  0  0  0  0  0  0  0  0  0
    7.5570  -23.3354    0.0000 C   0  0  0  0  0  0  0  0  0  0  0  0
    8.9726  -23.3849    0.0000 C   0  0  0  0  0  0  0  0  0  0  0  0
    9.5793  -26.2698    0.0000 C   0  0  0  0  0  0  0  0  0  0  0  0
    2.5094  -26.9879    0.0000 C   0  0  0  0  0  0  0  0  0  0  0  0
    7.4620  -26.6041    0.0000 H   0  0  0  0  0  0  0  0  0  0  0  0
    7.4950  -24.1525    0.0000 O   0  0  0  0  0  0  0  0  0  0  0  0
    5.7368  -23.0176    0.0000 C   0  0  0  0  0  0  0  0  0  0  0  0
    6.2569  -23.5623    0.0000 C   0  0  0  0  0  0  0  0  0  0  0  0
    6.0553  -27.3916    0.0000 O   0  0  0  0  0  0  0  0  0  0  0  0
    2.7162  -23.1889    0.0000 O   0  0  0  0  0  0  0  0  0  0  0  0
    3.6072  -23.0176    0.0000 N   0  0  0  0  0  0  0  0  0  0  0  0
    4.4987  -24.3052    0.0000 C   0  0  0  0  0  0  0  0  0  0  0  0
    4.4946  -25.1266    0.0000 H   0  0  0  0  0  0  0  0  0  0  0  0
    2.8974  -22.6125    0.0000 C   0  0  0  0  0  0  0  0  0  0  0  0
    2.8933  -21.7954    0.0000 C   0  0  0  0  0  0  0  0  0  0  0  0
    2.1874  -23.0134    0.0000 O   0  0  0  0  0  0  0  0  0  0  0  0
    3.5989  -21.3832    0.0000 N   0  0  0  0  0  0  0  0  0  0  0  0
    3.5948  -20.5660    0.0000 C   0  0  0  0  0  0  0  0  0  0  0  0
    4.3004  -20.1538    0.0000 C   0  0  0  0  0  0  0  0  0  0  0  0
    2.8850  -20.1610    0.0000 O   0  0  0  0  0  0  0  0  0  0  0  0
    4.2963  -19.3367    0.0000 S   0  0  0  0  0  0  0  0  0  0  0  0
    5.0019  -18.9245    0.0000 C   0  0  0  0  0  0  0  0  0  0  0  0
    5.7104  -19.3316    0.0000 C   0  0  0  0  0  0  0  0  0  0  0  0
    6.4155  -18.9201    0.0000 N   0  0  0  0  0  0  0  0  0  0  0  0
    4.9949  -18.1111    0.0000 N   0  0  0  0  0  0  0  0  0  0  0  0
    5.6971  -17.6972    0.0000 C   0  0  0  0  0  0  0  0  0  0  0  0
    6.4099  -18.1018    0.0000 C   0  0  0  0  0  0  0  0  0  0  0  0
    7.1145  -17.6868    0.0000 C   0  0  0  0  0  0  0  0  0  0  0  0
    7.1075  -16.8675    0.0000 C   0  0  0  0  0  0  0  0  0  0  0  0
    6.3901  -16.4649    0.0000 C   0  0  0  0  0  0  0  0  0  0  0  0
    5.6884  -16.8822    0.0000 C   0  0  0  0  0  0  0  0  0  0  0  0
  1  2  1  0
  2  3  1  0
  3  4  1  0
  4  5  1  0
  5  1  1  0
  7 12  1  0
  8  9  1  0
  9  7  1  0
 10  6  1  0
 11 16  1  6
 12 11  1  0
 13 15  1  0
 14  8  1  0
  2 13  1  0
 15 21  1  0
 16  6  1  0
 17 10  1  0
 18 11  1  0
 19  6  1  0
 20 14  1  0
 21 22  1  0
 22 18  1  0
 23 26  1  0
 17 24  1  1
 25  8  2  0
 26 19  1  0
 27 15  2  0
 18 28  1  1
  1 29  1  6
  9 30  1  1
 12 31  1  6
 32 18  1  0
 20 33  1  6
 34 24  1  0
 35 24  1  0
 26 36  1  1
 37 33  1  0
  6 38  1  6
 23 17  1  0
  1 20  1  0
 10 39  1  6
 21 40  1  6
 28 41  1  0
  7 42  2  0
  4 43  2  0
  3 44  1  0
 13 45  1  1
  2 46  1  1
 44 47  1  0
 47 48  1  0
 47 49  2  0
 48 50  1  0
 50 51  1  0
 51 52  1  0
 51 53  2  0
 52 54  1  0
 54 55  1  0
 55 56  2  0
 56 57  1  0
 57 60  2  0
 59 58  2  0
 58 55  1  0
 59 60  1  0
 60 61  1  0
 61 62  2  0
 62 63  1  0
 63 64  2  0
 64 59  1  0
M  END

> <chembl_id>
CHEMBL3342549

> <chembl_pref_name>
None


$$$$

     RDKit          2D

 59 63  0  0  0  0  0  0  0  0999 V2000
   20.9250   -3.9250    0.0000 C   0  0  0  0  0  0  0  0  0  0  0  0
   20.9250   -3.1078    0.0000 C   0  0  0  0  0  0  0  0  0  0  0  0
   19.6621   -3.5081    0.0000 C   0  0  0  0  0  0  0  0  0  0  0  0
   20.1450   -4.1644    0.0000 O   0  0  0  0  0  0  0  0  0  0  0  0
   20.1450   -2.8395    0.0000 N   0  0  0  0  0  0  0  0  0  0  0  0
   25.1843   -3.1078    0.0000 C   0  0  0  0  0  0  0  0  0  0  0  0
   21.6267   -2.6910    0.0000 C   0  0  0  0  0  0  0  0  0  0  0  0
   22.3448   -5.5387    0.0000 C   0  0  0  0  0  0  0  0  0  0  0  0
   23.0423   -4.3006    0.0000 C   0  0  0  0  0  0  0  0  0  0  0  0
   23.0506   -5.1178    0.0000 C   0  0  0  0  0  0  0  0  0  0  0  0
   25.9025   -2.6786    0.0000 C   0  0  0  0  0  0  0  0  0  0  0  0
   23.7481   -3.1078    0.0000 C   0  0  0  0  0  0  0  0  0  0  0  0
   23.7481   -3.9250    0.0000 C   0  0  0  0  0  0  0  0  0  0  0  0
   21.6267   -1.8738    0.0000 C   0  0  0  0  0  0  0  0  0  0  0  0
   21.6432   -5.1301    0.0000 O   0  0  0  0  0  0  0  0  0  0  0  0
   24.4662   -2.6992    0.0000 O   0  0  0  0  0  0  0  0  0  0  0  0
   26.6206   -3.0995    0.0000 C   0  0  0  0  0  0  0  0  0  0  0  0
   23.0506   -2.6910    0.0000 C   0  0  0  0  0  0  0  0  0  0  0  0
   21.6267   -4.3253    0.0000 C   0  0  0  0  0  0  0  0  0  0  0  0
   25.1967   -3.9291    0.0000 O   0  0  0  0  0  0  0  0  0  0  0  0
   22.3324   -1.4528    0.0000 C   0  0  0  0  0  0  0  0  0  0  0  0
   23.0506   -1.8738    0.0000 C   0  0  0  0  0  0  0  0  0  0  0  0
   26.6206   -3.9250    0.0000 C   0  0  0  0  0  0  0  0  0  0  0  0
   18.8408   -3.5081    0.0000 O   0  0  0  0  0  0  0  0  0  0  0  0
   27.3346   -2.6786    0.0000 N   0  0  0  0  0  0  0  0  0  0  0  0
   22.3572   -6.3642    0.0000 O   0  0  0  0  0  0  0  0  0  0  0  0
   22.3324   -3.8920    0.0000 O   0  0  0  0  0  0  0  0  0  0  0  0
   25.9025   -4.3377    0.0000 C   0  0  0  0  0  0  0  0  0  0  0  0
   20.9127   -1.4528    0.0000 O   0  0  0  0  0  0  0  0  0  0  0  0
   25.8901   -1.8614    0.0000 O   0  0  0  0  0  0  0  0  0  0  0  0
   20.5041   -4.6308    0.0000 C   0  0  0  0  0  0  0  0  0  0  0  0
   22.6296   -3.4050    0.0000 O   0  0  0  0  0  0  0  0  0  0  0  0
   22.3171   -2.8815    0.0000 C   0  0  0  0  0  0  0  0  0  0  0  0
   23.7605   -5.5140    0.0000 C   0  0  0  0  0  0  0  0  0  0  0  0
   24.4414   -4.3460    0.0000 C   0  0  0  0  0  0  0  0  0  0  0  0
   22.3324   -2.2824    0.0000 C   0  0  0  0  0  0  0  0  0  0  0  0
   20.9127   -4.7339    0.0000 C   0  0  0  0  0  0  0  0  0  0  0  0
   22.3324   -0.6356    0.0000 C   0  0  0  0  0  0  0  0  0  0  0  0
   27.3346   -1.8614    0.0000 C   0  0  0  0  0  0  0  0  0  0  0  0
   28.0445   -3.0995    0.0000 C   0  0  0  0  0  0  0  0  0  0  0  0
   25.9025   -5.1549    0.0000 C   0  0  0  0  0  0  0  0  0  0  0  0
   21.8041   -3.3967    0.0000 C   0  0  0  0  0  0  0  0  0  0  0  0
   20.9003   -5.5511    0.0000 C   0  0  0  0  0  0  0  0  0  0  0  0
   20.9250   -2.2782    0.0000 H   0  0  0  0  0  0  0  0  0  0  0  0
   24.5776   -3.6526    0.0000 H   0  0  0  0  0  0  0  0  0  0  0  0
   19.8980   -2.0606    0.0000 C   0  0  0  0  0  0  0  0  0  0  0  0
   19.0999   -1.8850    0.0000 C   0  0  0  0  0  0  0  0  0  0  0  0
   18.8529   -1.1060    0.0000 C   0  0  0  0  0  0  0  0  0  0  0  0
   18.0548   -0.9304    0.0000 C   0  0  0  0  0  0  0  0  0  0  0  0
   17.5037   -1.5338    0.0000 C   0  0  0  0  0  0  0  0  0  0  0  0
   16.7077   -1.3557    0.0000 C   0  0  0  0  0  0  0  0  0  0  0  0
   17.2065   -2.9121    0.0000 N   0  0  0  0  0  0  0  0  0  0  0  0
   17.7538   -2.3082    0.0000 C   0  0  0  0  0  0  0  0  0  0  0  0
   16.4037   -2.7382    0.0000 C   0  0  0  0  0  0  0  0  0  0  0  0
   16.1553   -1.9627    0.0000 C   0  0  0  0  0  0  0  0  0  0  0  0
   15.3611   -1.7914    0.0000 C   0  0  0  0  0  0  0  0  0  0  0  0
   14.8190   -2.3946    0.0000 C   0  0  0  0  0  0  0  0  0  0  0  0
   15.0676   -3.1719    0.0000 C   0  0  0  0  0  0  0  0  0  0  0  0
   15.8612   -3.3395    0.0000 C   0  0  0  0  0  0  0  0  0  0  0  0
  2  1  1  0
  3  4  1  0
  4  1  1  0
  5  2  1  0
  6 16  1  0
  7  2  1  0
  8 15  1  0
  9 10  1  0
 10  8  1  0
 11  6  1  0
 12 13  1  0
 13  9  1  0
 14  7  1  0
 15 19  1  0
 12 16  1  6
 17 11  1  0
 18 22  1  0
 19  1  1  0
 20  6  1  0
 21 14  1  0
 22 21  1  0
 23 28  1  0
 24  3  2  0
 17 25  1  1
 26  8  2  0
 27  9  2  0
 28 20  1  0
 29 14  2  0
 11 30  1  6
  1 31  1  6
 32 18  1  0
  7 33  1  6
 10 34  1  1
 13 35  1  1
 18 36  1  1
 19 37  1  1
 21 38  1  6
 39 25  1  0
 40 25  1  0
 28 41  1  1
 42 32  1  0
 43 37  1  0
  2 44  1  1
  6 45  1  6
  5  3  1  0
 18 12  1  0
 17 23  1  0
  5 46  1  0
 46 47  1  0
 47 48  1  0
 48 49  1  0
 49 50  1  0
 50 51  2  0
 51 55  1  0
 54 52  1  0
 52 53  2  0
 53 50  1  0
 54 55  1  0
 55 56  2  0
 56 57  1  0
 57 58  2  0
 58 59  1  0
 59 54  2  0
M  END

> <chembl_id>
CHEMBL4126378

> <chembl_pref_name>
None


$$$$

     RDKit          2D

 59 63  0  0  0  0  0  0  0  0999 V2000
    5.9804   -4.6431    0.0000 C   0  0  0  0  0  0  0  0  0  0  0  0
    5.9804   -3.8259    0.0000 C   0  0  0  0  0  0  0  0  0  0  0  0
    4.7174   -4.2263    0.0000 C   0  0  0  0  0  0  0  0  0  0  0  0
    5.2003   -4.8825    0.0000 O   0  0  0  0  0  0  0  0  0  0  0  0
    5.2003   -3.5577    0.0000 N   0  0  0  0  0  0  0  0  0  0  0  0
   10.2397   -3.8259    0.0000 C   0  0  0  0  0  0  0  0  0  0  0  0
    6.6820   -3.4091    0.0000 C   0  0  0  0  0  0  0  0  0  0  0  0
    7.4001   -6.2569    0.0000 C   0  0  0  0  0  0  0  0  0  0  0  0
    8.0976   -5.0187    0.0000 C   0  0  0  0  0  0  0  0  0  0  0  0
    8.1059   -5.8359    0.0000 C   0  0  0  0  0  0  0  0  0  0  0  0
   10.9578   -3.3967    0.0000 C   0  0  0  0  0  0  0  0  0  0  0  0
    8.8034   -3.8259    0.0000 C   0  0  0  0  0  0  0  0  0  0  0  0
    8.8034   -4.6431    0.0000 C   0  0  0  0  0  0  0  0  0  0  0  0
    6.6820   -2.5919    0.0000 C   0  0  0  0  0  0  0  0  0  0  0  0
    6.6985   -5.8483    0.0000 O   0  0  0  0  0  0  0  0  0  0  0  0
    9.5215   -3.4173    0.0000 O   0  0  0  0  0  0  0  0  0  0  0  0
   11.6759   -3.8177    0.0000 C   0  0  0  0  0  0  0  0  0  0  0  0
    8.1059   -3.4091    0.0000 C   0  0  0  0  0  0  0  0  0  0  0  0
    6.6820   -5.0435    0.0000 C   0  0  0  0  0  0  0  0  0  0  0  0
   10.2520   -4.6473    0.0000 O   0  0  0  0  0  0  0  0  0  0  0  0
    7.3877   -2.1709    0.0000 C   0  0  0  0  0  0  0  0  0  0  0  0
    8.1059   -2.5919    0.0000 C   0  0  0  0  0  0  0  0  0  0  0  0
   11.6759   -4.6431    0.0000 C   0  0  0  0  0  0  0  0  0  0  0  0
    3.8961   -4.2263    0.0000 O   0  0  0  0  0  0  0  0  0  0  0  0
   12.3899   -3.3967    0.0000 N   0  0  0  0  0  0  0  0  0  0  0  0
    7.4125   -7.0823    0.0000 O   0  0  0  0  0  0  0  0  0  0  0  0
    7.3877   -4.6101    0.0000 O   0  0  0  0  0  0  0  0  0  0  0  0
   10.9578   -5.0559    0.0000 C   0  0  0  0  0  0  0  0  0  0  0  0
    5.9680   -2.1709    0.0000 O   0  0  0  0  0  0  0  0  0  0  0  0
   10.9454   -2.5795    0.0000 O   0  0  0  0  0  0  0  0  0  0  0  0
    5.5594   -5.3489    0.0000 C   0  0  0  0  0  0  0  0  0  0  0  0
    7.6849   -4.1231    0.0000 O   0  0  0  0  0  0  0  0  0  0  0  0
    7.3134   -3.5407    0.0000 C   0  0  0  0  0  0  0  0  0  0  0  0
    8.8158   -6.2321    0.0000 C   0  0  0  0  0  0  0  0  0  0  0  0
    9.4968   -5.0641    0.0000 C   0  0  0  0  0  0  0  0  0  0  0  0
    7.3877   -3.0005    0.0000 C   0  0  0  0  0  0  0  0  0  0  0  0
    5.9680   -5.4521    0.0000 C   0  0  0  0  0  0  0  0  0  0  0  0
    7.3877   -1.3537    0.0000 C   0  0  0  0  0  0  0  0  0  0  0  0
   12.3899   -2.5795    0.0000 C   0  0  0  0  0  0  0  0  0  0  0  0
   13.0998   -3.8177    0.0000 C   0  0  0  0  0  0  0  0  0  0  0  0
   10.9578   -5.8730    0.0000 C   0  0  0  0  0  0  0  0  0  0  0  0
    6.8595   -4.1148    0.0000 C   0  0  0  0  0  0  0  0  0  0  0  0
    5.9556   -6.2693    0.0000 C   0  0  0  0  0  0  0  0  0  0  0  0
    5.9804   -2.9964    0.0000 H   0  0  0  0  0  0  0  0  0  0  0  0
    9.6330   -4.3707    0.0000 H   0  0  0  0  0  0  0  0  0  0  0  0
    4.9533   -2.7787    0.0000 C   0  0  0  0  0  0  0  0  0  0  0  0
    4.1552   -2.6031    0.0000 C   0  0  0  0  0  0  0  0  0  0  0  0
    3.9082   -1.8241    0.0000 C   0  0  0  0  0  0  0  0  0  0  0  0
    3.1101   -1.6485    0.0000 S   0  0  0  0  0  0  0  0  0  0  0  0
    2.5590   -2.2519    0.0000 C   0  0  0  0  0  0  0  0  0  0  0  0
    1.7621   -2.0778    0.0000 C   0  0  0  0  0  0  0  0  0  0  0  0
    2.2609   -3.6343    0.0000 N   0  0  0  0  0  0  0  0  0  0  0  0
    2.8082   -3.0304    0.0000 C   0  0  0  0  0  0  0  0  0  0  0  0
    1.4581   -3.4604    0.0000 C   0  0  0  0  0  0  0  0  0  0  0  0
    1.2089   -2.6850    0.0000 C   0  0  0  0  0  0  0  0  0  0  0  0
    0.4193   -2.5145    0.0000 C   0  0  0  0  0  0  0  0  0  0  0  0
   -0.1316   -3.1185    0.0000 C   0  0  0  0  0  0  0  0  0  0  0  0
    0.1253   -3.8955    0.0000 C   0  0  0  0  0  0  0  0  0  0  0  0
    0.9163   -4.0624    0.0000 C   0  0  0  0  0  0  0  0  0  0  0  0
  2  1  1  0
  3  4  1  0
  4  1  1  0
  5  2  1  0
  6 16  1  0
  7  2  1  0
  8 15  1  0
  9 10  1  0
 10  8  1  0
 11  6  1  0
 12 13  1  0
 13  9  1  0
 14  7  1  0
 15 19  1  0
 12 16  1  6
 17 11  1  0
 18 22  1  0
 19  1  1  0
 20  6  1  0
 21 14  1  0
 22 21  1  0
 23 28  1  0
 24  3  2  0
 17 25  1  1
 26  8  2  0
 27  9  2  0
 28 20  1  0
 29 14  2  0
 11 30  1  6
  1 31  1  6
 32 18  1  0
  7 33  1  6
 10 34  1  1
 13 35  1  1
 18 36  1  1
 19 37  1  1
 21 38  1  6
 39 25  1  0
 40 25  1  0
 28 41  1  1
 42 32  1  0
 43 37  1  0
  2 44  1  1
  6 45  1  6
  5  3  1  0
 18 12  1  0
 17 23  1  0
  5 46  1  0
 46 47  1  0
 47 48  1  0
 48 49  1  0
 49 50  1  0
 50 51  2  0
 51 55  1  0
 54 52  1  0
 52 53  2  0
 53 50  1  0
 54 55  1  0
 55 56  2  0
 56 57  1  0
 57 58  2  0
 58 59  1  0
 59 54  2  0
M  END

> <chembl_id>
CHEMBL4126381

> <chembl_pref_name>
None


$$$$

     RDKit          2D

 59 63  0  0  0  0  0  0  0  0999 V2000
    6.7480  -20.0418    0.0000 C   0  0  0  0  0  0  0  0  0  0  0  0
    6.7480  -19.2246    0.0000 C   0  0  0  0  0  0  0  0  0  0  0  0
    5.4851  -19.6250    0.0000 C   0  0  0  0  0  0  0  0  0  0  0  0
    5.9680  -20.2812    0.0000 O   0  0  0  0  0  0  0  0  0  0  0  0
    5.9680  -18.9564    0.0000 N   0  0  0  0  0  0  0  0  0  0  0  0
   11.0073  -19.2246    0.0000 C   0  0  0  0  0  0  0  0  0  0  0  0
    7.4496  -18.8078    0.0000 C   0  0  0  0  0  0  0  0  0  0  0  0
    8.1678  -21.6556    0.0000 C   0  0  0  0  0  0  0  0  0  0  0  0
    8.8653  -20.4174    0.0000 C   0  0  0  0  0  0  0  0  0  0  0  0
    8.8735  -21.2346    0.0000 C   0  0  0  0  0  0  0  0  0  0  0  0
   11.7255  -18.7954    0.0000 C   0  0  0  0  0  0  0  0  0  0  0  0
    9.5710  -19.2246    0.0000 C   0  0  0  0  0  0  0  0  0  0  0  0
    9.5710  -20.0418    0.0000 C   0  0  0  0  0  0  0  0  0  0  0  0
    7.4496  -17.9906    0.0000 C   0  0  0  0  0  0  0  0  0  0  0  0
    7.4662  -21.2470    0.0000 O   0  0  0  0  0  0  0  0  0  0  0  0
   10.2892  -18.8160    0.0000 O   0  0  0  0  0  0  0  0  0  0  0  0
   12.4436  -19.2164    0.0000 C   0  0  0  0  0  0  0  0  0  0  0  0
    8.8735  -18.8078    0.0000 C   0  0  0  0  0  0  0  0  0  0  0  0
    7.4496  -20.4422    0.0000 C   0  0  0  0  0  0  0  0  0  0  0  0
   11.0197  -20.0459    0.0000 O   0  0  0  0  0  0  0  0  0  0  0  0
    8.1554  -17.5696    0.0000 C   0  0  0  0  0  0  0  0  0  0  0  0
    8.8735  -17.9906    0.0000 C   0  0  0  0  0  0  0  0  0  0  0  0
   12.4436  -20.0418    0.0000 C   0  0  0  0  0  0  0  0  0  0  0  0
    4.6638  -19.6250    0.0000 O   0  0  0  0  0  0  0  0  0  0  0  0
   13.1576  -18.7954    0.0000 N   0  0  0  0  0  0  0  0  0  0  0  0
    8.1802  -22.4810    0.0000 O   0  0  0  0  0  0  0  0  0  0  0  0
    8.1554  -20.0088    0.0000 O   0  0  0  0  0  0  0  0  0  0  0  0
   11.7255  -20.4545    0.0000 C   0  0  0  0  0  0  0  0  0  0  0  0
    6.7356  -17.5696    0.0000 O   0  0  0  0  0  0  0  0  0  0  0  0
   11.7131  -17.9782    0.0000 O   0  0  0  0  0  0  0  0  0  0  0  0
    6.3270  -20.7476    0.0000 C   0  0  0  0  0  0  0  0  0  0  0  0
    8.4526  -19.5218    0.0000 O   0  0  0  0  0  0  0  0  0  0  0  0
    8.0811  -19.0278    0.0000 C   0  0  0  0  0  0  0  0  0  0  0  0
    9.5834  -21.6308    0.0000 C   0  0  0  0  0  0  0  0  0  0  0  0
   10.2644  -20.4628    0.0000 C   0  0  0  0  0  0  0  0  0  0  0  0
    8.1554  -18.3992    0.0000 C   0  0  0  0  0  0  0  0  0  0  0  0
    6.7356  -20.8508    0.0000 C   0  0  0  0  0  0  0  0  0  0  0  0
    8.1554  -16.7524    0.0000 C   0  0  0  0  0  0  0  0  0  0  0  0
   13.1576  -17.9782    0.0000 C   0  0  0  0  0  0  0  0  0  0  0  0
   13.8675  -19.2164    0.0000 C   0  0  0  0  0  0  0  0  0  0  0  0
   11.7255  -21.2717    0.0000 C   0  0  0  0  0  0  0  0  0  0  0  0
    7.6271  -19.5135    0.0000 C   0  0  0  0  0  0  0  0  0  0  0  0
    6.7233  -21.6680    0.0000 C   0  0  0  0  0  0  0  0  0  0  0  0
    6.7480  -18.3951    0.0000 H   0  0  0  0  0  0  0  0  0  0  0  0
   10.4006  -19.7694    0.0000 H   0  0  0  0  0  0  0  0  0  0  0  0
    5.7210  -18.1774    0.0000 C   0  0  0  0  0  0  0  0  0  0  0  0
    4.9229  -18.0018    0.0000 C   0  0  0  0  0  0  0  0  0  0  0  0
    4.6759  -17.2228    0.0000 C   0  0  0  0  0  0  0  0  0  0  0  0
    3.8778  -17.0472    0.0000 N   0  0  0  0  0  0  0  0  0  0  0  0
    3.3267  -17.6506    0.0000 C   0  0  0  0  0  0  0  0  0  0  0  0
    2.5307  -17.4725    0.0000 C   0  0  0  0  0  0  0  0  0  0  0  0
    3.0294  -19.0290    0.0000 N   0  0  0  0  0  0  0  0  0  0  0  0
    3.5768  -18.4250    0.0000 C   0  0  0  0  0  0  0  0  0  0  0  0
    2.2266  -18.8550    0.0000 C   0  0  0  0  0  0  0  0  0  0  0  0
    1.9783  -18.0795    0.0000 C   0  0  0  0  0  0  0  0  0  0  0  0
    1.1841  -17.9082    0.0000 C   0  0  0  0  0  0  0  0  0  0  0  0
    0.6420  -18.5115    0.0000 C   0  0  0  0  0  0  0  0  0  0  0  0
    0.8905  -19.2887    0.0000 C   0  0  0  0  0  0  0  0  0  0  0  0
    1.6841  -19.4564    0.0000 C   0  0  0  0  0  0  0  0  0  0  0  0
  2  1  1  0
  3  4  1  0
  4  1  1  0
  5  2  1  0
  6 16  1  0
  7  2  1  0
  8 15  1  0
  9 10  1  0
 10  8  1  0
 11  6  1  0
 12 13  1  0
 13  9  1  0
 14  7  1  0
 15 19  1  0
 12 16  1  6
 17 11  1  0
 18 22  1  0
 19  1  1  0
 20  6  1  0
 21 14  1  0
 22 21  1  0
 23 28  1  0
 24  3  2  0
 17 25  1  1
 26  8  2  0
 27  9  2  0
 28 20  1  0
 29 14  2  0
 11 30  1  6
  1 31  1  6
 32 18  1  0
  7 33  1  6
 10 34  1  1
 13 35  1  1
 18 36  1  1
 19 37  1  1
 21 38  1  6
 39 25  1  0
 40 25  1  0
 28 41  1  1
 42 32  1  0
 43 37  1  0
  2 44  1  1
  6 45  1  6
  5  3  1  0
 18 12  1  0
 17 23  1  0
  5 46  1  0
 46 47  1  0
 47 48  1  0
 48 49  1  0
 49 50  1  0
 50 51  2  0
 51 55  1  0
 54 52  1  0
 52 53  2  0
 53 50  1  0
 54 55  1  0
 55 56  2  0
 56 57  1  0
 57 58  2  0
 58 59  1  0
 59 54  2  0
M  END

> <chembl_id>
CHEMBL4129583

> <chembl_pref_name>
None


$$$$

     RDKit          2D

 59 63  0  0  0  0  0  0  0  0999 V2000
   20.2441  -21.9238    0.0000 C   0  0  0  0  0  0  0  0  0  0  0  0
   20.2441  -21.1066    0.0000 C   0  0  0  0  0  0  0  0  0  0  0  0
   18.9811  -21.5070    0.0000 C   0  0  0  0  0  0  0  0  0  0  0  0
   19.4640  -22.1632    0.0000 O   0  0  0  0  0  0  0  0  0  0  0  0
   19.4640  -20.8384    0.0000 N   0  0  0  0  0  0  0  0  0  0  0  0
   24.5034  -21.1066    0.0000 C   0  0  0  0  0  0  0  0  0  0  0  0
   20.9457  -20.6898    0.0000 C   0  0  0  0  0  0  0  0  0  0  0  0
   21.6638  -23.5376    0.0000 C   0  0  0  0  0  0  0  0  0  0  0  0
   22.3613  -22.2994    0.0000 C   0  0  0  0  0  0  0  0  0  0  0  0
   22.3696  -23.1166    0.0000 C   0  0  0  0  0  0  0  0  0  0  0  0
   25.2215  -20.6774    0.0000 C   0  0  0  0  0  0  0  0  0  0  0  0
   23.0671  -21.1066    0.0000 C   0  0  0  0  0  0  0  0  0  0  0  0
   23.0671  -21.9238    0.0000 C   0  0  0  0  0  0  0  0  0  0  0  0
   20.9457  -19.8726    0.0000 C   0  0  0  0  0  0  0  0  0  0  0  0
   20.9622  -23.1290    0.0000 O   0  0  0  0  0  0  0  0  0  0  0  0
   23.7852  -20.6981    0.0000 O   0  0  0  0  0  0  0  0  0  0  0  0
   25.9396  -21.0984    0.0000 C   0  0  0  0  0  0  0  0  0  0  0  0
   22.3696  -20.6898    0.0000 C   0  0  0  0  0  0  0  0  0  0  0  0
   20.9457  -22.3242    0.0000 C   0  0  0  0  0  0  0  0  0  0  0  0
   24.5157  -21.9280    0.0000 O   0  0  0  0  0  0  0  0  0  0  0  0
   21.6514  -19.4516    0.0000 C   0  0  0  0  0  0  0  0  0  0  0  0
   22.3696  -19.8726    0.0000 C   0  0  0  0  0  0  0  0  0  0  0  0
   25.9396  -21.9238    0.0000 C   0  0  0  0  0  0  0  0  0  0  0  0
   18.1598  -21.5070    0.0000 O   0  0  0  0  0  0  0  0  0  0  0  0
   26.6536  -20.6774    0.0000 N   0  0  0  0  0  0  0  0  0  0  0  0
   21.6762  -24.3630    0.0000 O   0  0  0  0  0  0  0  0  0  0  0  0
   21.6514  -21.8908    0.0000 O   0  0  0  0  0  0  0  0  0  0  0  0
   25.2215  -22.3366    0.0000 C   0  0  0  0  0  0  0  0  0  0  0  0
   20.2317  -19.4516    0.0000 O   0  0  0  0  0  0  0  0  0  0  0  0
   25.2091  -19.8602    0.0000 O   0  0  0  0  0  0  0  0  0  0  0  0
   19.8231  -22.6296    0.0000 C   0  0  0  0  0  0  0  0  0  0  0  0
   21.9486  -21.4038    0.0000 O   0  0  0  0  0  0  0  0  0  0  0  0
   21.6106  -20.8898    0.0000 C   0  0  0  0  0  0  0  0  0  0  0  0
   23.0795  -23.5128    0.0000 C   0  0  0  0  0  0  0  0  0  0  0  0
   23.7605  -22.3448    0.0000 C   0  0  0  0  0  0  0  0  0  0  0  0
   21.6514  -20.2812    0.0000 C   0  0  0  0  0  0  0  0  0  0  0  0
   20.2317  -22.7328    0.0000 C   0  0  0  0  0  0  0  0  0  0  0  0
   21.6514  -18.6344    0.0000 C   0  0  0  0  0  0  0  0  0  0  0  0
   26.6536  -19.8602    0.0000 C   0  0  0  0  0  0  0  0  0  0  0  0
   27.3635  -21.0984    0.0000 C   0  0  0  0  0  0  0  0  0  0  0  0
   25.2215  -23.1538    0.0000 C   0  0  0  0  0  0  0  0  0  0  0  0
   21.1232  -21.3956    0.0000 C   0  0  0  0  0  0  0  0  0  0  0  0
   20.2193  -23.5500    0.0000 C   0  0  0  0  0  0  0  0  0  0  0  0
   20.2441  -20.2771    0.0000 H   0  0  0  0  0  0  0  0  0  0  0  0
   23.8967  -21.6514    0.0000 H   0  0  0  0  0  0  0  0  0  0  0  0
   19.2170  -20.0594    0.0000 C   0  0  0  0  0  0  0  0  0  0  0  0
   18.4189  -19.8838    0.0000 C   0  0  0  0  0  0  0  0  0  0  0  0
   18.1719  -19.1048    0.0000 C   0  0  0  0  0  0  0  0  0  0  0  0
   17.3738  -18.9292    0.0000 O   0  0  0  0  0  0  0  0  0  0  0  0
   17.1269  -18.1503    0.0000 C   0  0  0  0  0  0  0  0  0  0  0  0
   17.6780  -17.5493    0.0000 C   0  0  0  0  0  0  0  0  0  0  0  0
   16.0807  -17.2030    0.0000 C   0  0  0  0  0  0  0  0  0  0  0  0
   16.3300  -17.9790    0.0000 C   0  0  0  0  0  0  0  0  0  0  0  0
   16.6327  -16.5947    0.0000 C   0  0  0  0  0  0  0  0  0  0  0  0
   17.4277  -16.7708    0.0000 C   0  0  0  0  0  0  0  0  0  0  0  0
   17.9757  -16.1711    0.0000 N   0  0  0  0  0  0  0  0  0  0  0  0
   17.7299  -15.3950    0.0000 C   0  0  0  0  0  0  0  0  0  0  0  0
   16.9311  -15.2221    0.0000 C   0  0  0  0  0  0  0  0  0  0  0  0
   16.3865  -15.8232    0.0000 C   0  0  0  0  0  0  0  0  0  0  0  0
  2  1  1  0
  3  4  1  0
  4  1  1  0
  5  2  1  0
  6 16  1  0
  7  2  1  0
  8 15  1  0
  9 10  1  0
 10  8  1  0
 11  6  1  0
 12 13  1  0
 13  9  1  0
 14  7  1  0
 15 19  1  0
 12 16  1  6
 17 11  1  0
 18 22  1  0
 19  1  1  0
 20  6  1  0
 21 14  1  0
 22 21  1  0
 23 28  1  0
 24  3  2  0
 17 25  1  1
 26  8  2  0
 27  9  2  0
 28 20  1  0
 29 14  2  0
 11 30  1  6
  1 31  1  6
 32 18  1  0
  7 33  1  6
 10 34  1  1
 13 35  1  1
 18 36  1  1
 19 37  1  1
 21 38  1  6
 39 25  1  0
 40 25  1  0
 28 41  1  1
 42 32  1  0
 43 37  1  0
  2 44  1  1
  6 45  1  6
  5  3  1  0
 18 12  1  0
 17 23  1  0
  5 46  1  0
 46 47  1  0
 47 48  1  0
 48 49  1  0
 49 50  1  0
 50 51  2  0
 51 55  1  0
 54 52  1  0
 52 53  2  0
 53 50  1  0
 54 55  1  0
 55 56  2  0
 56 57  1  0
 57 58  2  0
 58 59  1  0
 59 54  2  0
M  END

> <chembl_id>
CHEMBL4129802

> <chembl_pref_name>
None


$$$$

     RDKit          2D

 60 64  0  0  0  0  0  0  0  0999 V2000
    7.4538   -5.1136    0.0000 C   0  0  0  0  0  0  0  0  0  0  0  0
    7.4538   -4.2964    0.0000 C   0  0  0  0  0  0  0  0  0  0  0  0
    6.1908   -4.6968    0.0000 C   0  0  0  0  0  0  0  0  0  0  0  0
    6.6737   -5.3530    0.0000 O   0  0  0  0  0  0  0  0  0  0  0  0
    6.6737   -4.0282    0.0000 N   0  0  0  0  0  0  0  0  0  0  0  0
   11.7131   -4.2964    0.0000 C   0  0  0  0  0  0  0  0  0  0  0  0
    8.1554   -3.8796    0.0000 C   0  0  0  0  0  0  0  0  0  0  0  0
    8.8735   -6.7274    0.0000 C   0  0  0  0  0  0  0  0  0  0  0  0
    9.5710   -5.4892    0.0000 C   0  0  0  0  0  0  0  0  0  0  0  0
    9.5793   -6.3064    0.0000 C   0  0  0  0  0  0  0  0  0  0  0  0
   12.4312   -3.8672    0.0000 C   0  0  0  0  0  0  0  0  0  0  0  0
   10.2768   -4.2964    0.0000 C   0  0  0  0  0  0  0  0  0  0  0  0
   10.2768   -5.1136    0.0000 C   0  0  0  0  0  0  0  0  0  0  0  0
    8.1554   -3.0624    0.0000 C   0  0  0  0  0  0  0  0  0  0  0  0
    8.1719   -6.3188    0.0000 O   0  0  0  0  0  0  0  0  0  0  0  0
   10.9949   -3.8878    0.0000 O   0  0  0  0  0  0  0  0  0  0  0  0
   13.1494   -4.2882    0.0000 C   0  0  0  0  0  0  0  0  0  0  0  0
    9.5793   -3.8796    0.0000 C   0  0  0  0  0  0  0  0  0  0  0  0
    8.1554   -5.5140    0.0000 C   0  0  0  0  0  0  0  0  0  0  0  0
   11.7255   -5.1178    0.0000 O   0  0  0  0  0  0  0  0  0  0  0  0
    8.8612   -2.6414    0.0000 C   0  0  0  0  0  0  0  0  0  0  0  0
    9.5793   -3.0624    0.0000 C   0  0  0  0  0  0  0  0  0  0  0  0
   13.1494   -5.1136    0.0000 C   0  0  0  0  0  0  0  0  0  0  0  0
    5.3695   -4.6968    0.0000 O   0  0  0  0  0  0  0  0  0  0  0  0
   13.8634   -3.8672    0.0000 N   0  0  0  0  0  0  0  0  0  0  0  0
    8.8859   -7.5528    0.0000 O   0  0  0  0  0  0  0  0  0  0  0  0
    8.8612   -5.0806    0.0000 O   0  0  0  0  0  0  0  0  0  0  0  0
   12.4312   -5.5264    0.0000 C   0  0  0  0  0  0  0  0  0  0  0  0
    7.4414   -2.6414    0.0000 O   0  0  0  0  0  0  0  0  0  0  0  0
   12.4188   -3.0500    0.0000 O   0  0  0  0  0  0  0  0  0  0  0  0
    7.0328   -5.8194    0.0000 C   0  0  0  0  0  0  0  0  0  0  0  0
    9.1583   -4.5936    0.0000 O   0  0  0  0  0  0  0  0  0  0  0  0
    8.7491   -3.9824    0.0000 C   0  0  0  0  0  0  0  0  0  0  0  0
   10.2892   -6.7026    0.0000 C   0  0  0  0  0  0  0  0  0  0  0  0
   10.9702   -5.5346    0.0000 C   0  0  0  0  0  0  0  0  0  0  0  0
    8.8612   -3.4710    0.0000 C   0  0  0  0  0  0  0  0  0  0  0  0
    7.4414   -5.9226    0.0000 C   0  0  0  0  0  0  0  0  0  0  0  0
    8.8612   -1.8242    0.0000 C   0  0  0  0  0  0  0  0  0  0  0  0
   13.8634   -3.0500    0.0000 C   0  0  0  0  0  0  0  0  0  0  0  0
   14.5732   -4.2882    0.0000 C   0  0  0  0  0  0  0  0  0  0  0  0
   12.4312   -6.3436    0.0000 C   0  0  0  0  0  0  0  0  0  0  0  0
    8.3329   -4.5854    0.0000 C   0  0  0  0  0  0  0  0  0  0  0  0
    7.4290   -6.7398    0.0000 C   0  0  0  0  0  0  0  0  0  0  0  0
    7.4538   -3.4669    0.0000 H   0  0  0  0  0  0  0  0  0  0  0  0
   11.1064   -4.8412    0.0000 H   0  0  0  0  0  0  0  0  0  0  0  0
    6.4267   -3.2492    0.0000 C   0  0  0  0  0  0  0  0  0  0  0  0
    5.6286   -3.0736    0.0000 C   0  0  0  0  0  0  0  0  0  0  0  0
    5.3817   -2.2946    0.0000 C   0  0  0  0  0  0  0  0  0  0  0  0
    4.5836   -2.1190    0.0000 O   0  0  0  0  0  0  0  0  0  0  0  0
    4.0324   -2.7224    0.0000 C   0  0  0  0  0  0  0  0  0  0  0  0
    3.2364   -2.5443    0.0000 C   0  0  0  0  0  0  0  0  0  0  0  0
    3.7352   -4.1008    0.0000 N   0  0  0  0  0  0  0  0  0  0  0  0
    4.2826   -3.4968    0.0000 C   0  0  0  0  0  0  0  0  0  0  0  0
    2.9324   -3.9268    0.0000 C   0  0  0  0  0  0  0  0  0  0  0  0
    2.6879   -3.1501    0.0000 C   0  0  0  0  0  0  0  0  0  0  0  0
    1.8946   -2.9748    0.0000 C   0  0  0  0  0  0  0  0  0  0  0  0
    1.3450   -3.5753    0.0000 C   0  0  0  0  0  0  0  0  0  0  0  0
    1.5941   -4.3538    0.0000 C   0  0  0  0  0  0  0  0  0  0  0  0
    2.3869   -4.5255    0.0000 C   0  0  0  0  0  0  0  0  0  0  0  0
    9.5752   -7.1236    0.0000 F   0  0  0  0  0  0  0  0  0  0  0  0
  2  1  1  0
  3  4  1  0
  4  1  1  0
  5  2  1  0
  6 16  1  0
  7  2  1  0
  8 15  1  0
  9 10  1  0
 10  8  1  0
 11  6  1  0
 12 13  1  0
 13  9  1  0
 14  7  1  0
 15 19  1  0
 12 16  1  6
 17 11  1  0
 18 22  1  0
 19  1  1  0
 20  6  1  0
 21 14  1  0
 22 21  1  0
 23 28  1  0
 24  3  2  0
 17 25  1  1
 26  8  2  0
 27  9  2  0
 28 20  1  0
 29 14  2  0
 11 30  1  6
  1 31  1  6
 32 18  1  0
  7 33  1  6
 10 34  1  1
 13 35  1  1
 18 36  1  1
 19 37  1  1
 21 38  1  6
 39 25  1  0
 40 25  1  0
 28 41  1  1
 42 32  1  0
 43 37  1  0
  2 44  1  1
  6 45  1  6
  5  3  1  0
 18 12  1  0
 17 23  1  0
  5 46  1  0
 46 47  1  0
 47 48  1  0
 48 49  1  0
 49 50  1  0
 50 51  2  0
 51 55  1  0
 54 52  1  0
 52 53  2  0
 53 50  1  0
 54 55  1  0
 55 56  2  0
 56 57  1  0
 57 58  2  0
 58 59  1  0
 59 54  2  0
 10 60  1  0
M  END

> <chembl_id>
CHEMBL4130081

> <chembl_pref_name>
None


$$$$

     RDKit          2D

 61 66  0  0  0  0  0  0  0  0999 V2000
   15.6626  -10.2298    0.0000 C   0  0  0  0  0  0  0  0  0  0  0  0
   14.9546  -10.6746    0.0000 C   0  0  0  0  0  0  0  0  0  0  0  0
   16.3539  -10.6640    0.0000 C   0  0  0  0  0  0  0  0  0  0  0  0
   15.0600  -11.4918    0.0000 C   0  0  0  0  0  0  0  0  0  0  0  0
   16.3639  -11.3652    0.0000 C   0  0  0  0  0  0  0  0  0  0  0  0
   14.3050  -11.8245    0.0000 C   0  0  0  0  0  0  0  0  0  0  0  0
   17.0003  -11.8054    0.0000 C   0  0  0  0  0  0  0  0  0  0  0  0
   14.3116  -12.6497    0.0000 C   0  0  0  0  0  0  0  0  0  0  0  0
   17.0059  -12.6263    0.0000 C   0  0  0  0  0  0  0  0  0  0  0  0
   15.0739  -12.9694    0.0000 O   0  0  0  0  0  0  0  0  0  0  0  0
   16.2434  -12.9653    0.0000 C   0  0  0  0  0  0  0  0  0  0  0  0
   15.0886  -13.7188    0.0000 C   0  0  0  0  0  0  0  0  0  0  0  0
   16.3612  -13.7681    0.0000 C   0  0  0  0  0  0  0  0  0  0  0  0
   15.6643  -14.2166    0.0000 C   0  0  0  0  0  0  0  0  0  0  0  0
   15.6613   -9.4042    0.0000 O   0  0  0  0  0  0  0  0  0  0  0  0
   14.2167  -10.3300    0.0000 C   0  0  0  0  0  0  0  0  0  0  0  0
   17.7911  -12.0172    0.0000 C   0  0  0  0  0  0  0  0  0  0  0  0
   17.6894  -13.0719    0.0000 O   0  0  0  0  0  0  0  0  0  0  0  0
   17.1053  -14.1146    0.0000 O   0  0  0  0  0  0  0  0  0  0  0  0
   15.5317  -12.5622    0.0000 C   0  0  0  0  0  0  0  0  0  0  0  0
   15.6680  -15.0400    0.0000 C   0  0  0  0  0  0  0  0  0  0  0  0
   14.2263  -14.1310    0.0000 O   0  0  0  0  0  0  0  0  0  0  0  0
   13.6257  -13.1128    0.0000 C   0  0  0  0  0  0  0  0  0  0  0  0
   12.8926  -12.7438    0.0000 C   0  0  0  0  0  0  0  0  0  0  0  0
   15.7046  -11.0204    0.0000 N   0  0  0  0  0  0  0  0  0  0  0  0
   18.5047  -13.0905    0.0000 C   0  0  0  0  0  0  0  0  0  0  0  0
   18.8979  -13.8039    0.0000 O   0  0  0  0  0  0  0  0  0  0  0  0
   19.7098  -13.8268    0.0000 C   0  0  0  0  0  0  0  0  0  0  0  0
   20.1335  -13.1281    0.0000 C   0  0  0  0  0  0  0  0  0  0  0  0
   19.7403  -12.4147    0.0000 C   0  0  0  0  0  0  0  0  0  0  0  0
   18.9210  -12.3911    0.0000 C   0  0  0  0  0  0  0  0  0  0  0  0
   20.1069  -14.5444    0.0000 C   0  0  0  0  0  0  0  0  0  0  0  0
   20.1647  -11.7153    0.0000 N   0  0  0  0  0  0  0  0  0  0  0  0
   20.9854  -11.7315    0.0000 C   0  0  0  0  0  0  0  0  0  0  0  0
   19.7687  -10.9922    0.0000 C   0  0  0  0  0  0  0  0  0  0  0  0
   17.9863  -13.9457    0.0000 H   0  0  0  0  0  0  0  0  0  0  0  0
   13.6164  -11.3724    0.0000 O   0  0  0  0  0  0  0  0  0  0  0  0
   13.6137  -10.5617    0.0000 C   0  0  0  0  0  0  0  0  0  0  0  0
   13.1125   -9.9064    0.0000 O   0  0  0  0  0  0  0  0  0  0  0  0
   13.5013  -12.0007    0.0000 C   0  0  0  0  0  0  0  0  0  0  0  0
   16.5322  -10.2171    0.0000 C   0  0  0  0  0  0  0  0  0  0  0  0
   16.5173   -9.3668    0.0000 C   0  0  0  0  0  0  0  0  0  0  0  0
   17.3826  -10.2021    0.0000 C   0  0  0  0  0  0  0  0  0  0  0  0
   17.3675   -9.3519    0.0000 N   0  0  0  0  0  0  0  0  0  0  0  0
   17.2036  -10.6615    0.0000 C   0  0  0  0  0  0  0  0  0  0  0  0
   18.0819   -8.8905    0.0000 C   0  0  0  0  0  0  0  0  0  0  0  0
   18.0394   -8.0410    0.0000 C   0  0  0  0  0  0  0  0  0  0  0  0
   18.7543   -7.5855    0.0000 C   0  0  0  0  0  0  0  0  0  0  0  0
   18.7121   -6.7369    0.0000 C   0  0  0  0  0  0  0  0  0  0  0  0
   17.9546   -6.3481    0.0000 C   0  0  0  0  0  0  0  0  0  0  0  0
   17.2837   -7.6615    0.0000 C   0  0  0  0  0  0  0  0  0  0  0  0
   17.2410   -6.8178    0.0000 C   0  0  0  0  0  0  0  0  0  0  0  0
   16.4902   -6.4347    0.0000 C   0  0  0  0  0  0  0  0  0  0  0  0
   15.7816   -6.8943    0.0000 C   0  0  0  0  0  0  0  0  0  0  0  0
   15.8286   -7.7410    0.0000 C   0  0  0  0  0  0  0  0  0  0  0  0
   16.5798   -8.1202    0.0000 C   0  0  0  0  0  0  0  0  0  0  0  0
   19.5099   -7.9761    0.0000 O   0  0  0  0  0  0  0  0  0  0  0  0
   20.2257   -7.5169    0.0000 C   0  0  0  0  0  0  0  0  0  0  0  0
   17.4012  -11.0914    0.0000 O   0  0  0  0  0  0  0  0  0  0  0  0
   18.5265  -11.6796    0.0000 O   0  0  0  0  0  0  0  0  0  0  0  0
   15.4545  -10.5729    0.0000 H   0  0  0  0  0  0  0  0  0  0  0  0
 13 19  2  0
 11 20  1  6
 14 21  1  1
 12 22  2  0
  8 23  1  6
 23 24  1  0
  4 25  1  0
 26 18  1  0
 26 27  1  0
 26 31  1  0
 27 28  1  0
 28 29  1  0
 29 30  1  0
 30 31  1  0
 28 32  1  1
 30 33  1  1
 33 34  1  0
 33 35  1  0
 26 36  1  6
  6 37  1  0
 37 38  1  0
 25 38  1  0
 38 39  2  0
  6 40  1  6
 25 41  1  0
 42 41  1  0
  1  2  1  0
  1  3  1  0
  2  4  1  0
 41 43  1  0
 43 44  1  0
 44 42  1  0
  3  5  1  0
  3 45  1  6
  4  6  1  0
 44 46  1  0
  5  7  1  0
 46 47  1  0
  6  8  1  0
 47 48  2  0
  7  9  1  0
 48 49  1  0
  8 10  1  0
 49 50  2  0
 50 52  1  0
 51 47  1  0
  9 11  1  0
 10 12  1  0
 51 52  1  0
 11 13  1  0
 52 53  2  0
 12 14  1  0
 53 54  1  0
 13 14  1  0
 54 55  2  0
  1 15  2  0
 55 56  1  0
 56 51  2  0
  2 16  1  1
 48 57  1  0
 57 58  1  0
  7 17  1  6
  9 18  1  6
  7 59  1  0
 31 60  1  6
  4 61  1  6
M  END

> <chembl_id>
CHEMBL572931

> <chembl_pref_name>
None


$$$$

     RDKit          2D

 59 64  0  0  0  0  0  0  0  0999 V2000
   15.8477   -0.7505    0.0000 C   0  0  0  0  0  0  0  0  0  0  0  0
   15.1388   -1.1961    0.0000 C   0  0  0  0  0  0  0  0  0  0  0  0
   16.5400   -1.1853    0.0000 C   0  0  0  0  0  0  0  0  0  0  0  0
   15.2442   -2.0143    0.0000 C   0  0  0  0  0  0  0  0  0  0  0  0
   16.5499   -1.8876    0.0000 C   0  0  0  0  0  0  0  0  0  0  0  0
   14.4882   -2.3476    0.0000 C   0  0  0  0  0  0  0  0  0  0  0  0
   17.1872   -2.3285    0.0000 C   0  0  0  0  0  0  0  0  0  0  0  0
   14.4949   -3.1739    0.0000 C   0  0  0  0  0  0  0  0  0  0  0  0
   17.1928   -3.1504    0.0000 C   0  0  0  0  0  0  0  0  0  0  0  0
   15.2582   -3.4940    0.0000 O   0  0  0  0  0  0  0  0  0  0  0  0
   16.4292   -3.4899    0.0000 C   0  0  0  0  0  0  0  0  0  0  0  0
   15.2729   -4.2445    0.0000 C   0  0  0  0  0  0  0  0  0  0  0  0
   16.5473   -4.2938    0.0000 C   0  0  0  0  0  0  0  0  0  0  0  0
   15.8493   -4.7428    0.0000 C   0  0  0  0  0  0  0  0  0  0  0  0
   15.8463    0.0762    0.0000 O   0  0  0  0  0  0  0  0  0  0  0  0
   14.3997   -0.8510    0.0000 C   0  0  0  0  0  0  0  0  0  0  0  0
   17.9791   -2.5405    0.0000 C   0  0  0  0  0  0  0  0  0  0  0  0
   17.8773   -3.5967    0.0000 O   0  0  0  0  0  0  0  0  0  0  0  0
   17.2923   -4.6408    0.0000 O   0  0  0  0  0  0  0  0  0  0  0  0
   15.7167   -3.0862    0.0000 C   0  0  0  0  0  0  0  0  0  0  0  0
   15.8530   -5.5675    0.0000 C   0  0  0  0  0  0  0  0  0  0  0  0
   14.4094   -4.6572    0.0000 O   0  0  0  0  0  0  0  0  0  0  0  0
   13.8080   -3.6376    0.0000 C   0  0  0  0  0  0  0  0  0  0  0  0
   13.0739   -3.2681    0.0000 C   0  0  0  0  0  0  0  0  0  0  0  0
   15.8897   -1.5423    0.0000 N   0  0  0  0  0  0  0  0  0  0  0  0
   18.6937   -3.6153    0.0000 C   0  0  0  0  0  0  0  0  0  0  0  0
   19.0875   -4.3297    0.0000 O   0  0  0  0  0  0  0  0  0  0  0  0
   19.9006   -4.3525    0.0000 C   0  0  0  0  0  0  0  0  0  0  0  0
   20.3248   -3.6530    0.0000 C   0  0  0  0  0  0  0  0  0  0  0  0
   19.9309   -2.9386    0.0000 C   0  0  0  0  0  0  0  0  0  0  0  0
   19.1106   -2.9149    0.0000 C   0  0  0  0  0  0  0  0  0  0  0  0
   20.2980   -5.0711    0.0000 C   0  0  0  0  0  0  0  0  0  0  0  0
   20.3559   -2.2382    0.0000 N   0  0  0  0  0  0  0  0  0  0  0  0
   21.1778   -2.2543    0.0000 C   0  0  0  0  0  0  0  0  0  0  0  0
   19.9595   -1.5141    0.0000 C   0  0  0  0  0  0  0  0  0  0  0  0
   18.1754   -4.4705    0.0000 H   0  0  0  0  0  0  0  0  0  0  0  0
   13.7986   -1.8948    0.0000 O   0  0  0  0  0  0  0  0  0  0  0  0
   13.7959   -1.0830    0.0000 C   0  0  0  0  0  0  0  0  0  0  0  0
   13.2941   -0.4267    0.0000 O   0  0  0  0  0  0  0  0  0  0  0  0
   13.6835   -2.5240    0.0000 C   0  0  0  0  0  0  0  0  0  0  0  0
   16.7185   -0.7379    0.0000 C   0  0  0  0  0  0  0  0  0  0  0  0
   16.7035    0.1137    0.0000 C   0  0  0  0  0  0  0  0  0  0  0  0
   17.5700   -0.7230    0.0000 C   0  0  0  0  0  0  0  0  0  0  0  0
   17.5550    0.1284    0.0000 N   0  0  0  0  0  0  0  0  0  0  0  0
   17.3907   -1.1829    0.0000 C   0  0  0  0  0  0  0  0  0  0  0  0
   18.2703    0.5906    0.0000 C   0  0  0  0  0  0  0  0  0  0  0  0
   18.2278    1.4412    0.0000 C   0  0  0  0  0  0  0  0  0  0  0  0
   18.9436    1.8972    0.0000 C   0  0  0  0  0  0  0  0  0  0  0  0
   18.9014    2.7471    0.0000 C   0  0  0  0  0  0  0  0  0  0  0  0
   18.1429    3.1364    0.0000 N   0  0  0  0  0  0  0  0  0  0  0  0
   17.4753    1.8170    0.0000 C   0  0  0  0  0  0  0  0  0  0  0  0
   17.4282    2.6661    0.0000 C   0  0  0  0  0  0  0  0  0  0  0  0
   16.6707    3.0481    0.0000 C   0  0  0  0  0  0  0  0  0  0  0  0
   15.9596    2.5821    0.0000 C   0  0  0  0  0  0  0  0  0  0  0  0
   16.0109    1.7301    0.0000 C   0  0  0  0  0  0  0  0  0  0  0  0
   16.7688    1.3520    0.0000 N   0  0  0  0  0  0  0  0  0  0  0  0
   17.5886   -1.6135    0.0000 O   0  0  0  0  0  0  0  0  0  0  0  0
   18.7155   -2.2023    0.0000 O   0  0  0  0  0  0  0  0  0  0  0  0
   15.6388   -1.0955    0.0000 H   0  0  0  0  0  0  0  0  0  0  0  0
  7 17  1  6
  9 18  1  6
 13 19  2  0
 11 20  1  6
 14 21  1  1
 12 22  2  0
  8 23  1  6
 23 24  1  0
  4 25  1  0
 26 18  1  0
 26 27  1  0
 26 31  1  0
 27 28  1  0
 28 29  1  0
 29 30  1  0
 30 31  1  0
 28 32  1  1
 30 33  1  1
 33 34  1  0
 33 35  1  0
 26 36  1  6
  6 37  1  0
 37 38  1  0
 25 38  1  0
 38 39  2  0
  6 40  1  6
 25 41  1  0
 42 41  1  0
  1  2  1  0
  1  3  1  0
  2  4  1  0
 41 43  1  0
 43 44  1  0
 44 42  1  0
  3  5  1  0
  3 45  1  6
  4  6  1  0
 44 46  1  0
  5  7  1  0
 46 47  1  0
  6  8  1  0
 47 48  2  0
  7  9  1  0
 48 49  1  0
  8 10  1  0
 49 50  2  0
 50 52  1  0
 51 47  1  0
  9 11  1  0
 10 12  1  0
 51 52  1  0
 11 13  1  0
 52 53  2  0
 12 14  1  0
 53 54  1  0
 13 14  1  0
 54 55  2  0
  1 15  2  0
 55 56  1  0
 56 51  2  0
  2 16  1  1
  7 57  1  0
 31 58  1  6
  4 59  1  6
M  END

> <chembl_id>
CHEMBL583090

> <chembl_pref_name>
None


$$$$

     RDKit          2D

 60 65  0  0  0  0  0  0  0  0999 V2000
    7.5515  -22.2834    0.0000 C   0  0  0  0  0  0  0  0  0  0  0  0
    6.8428  -22.7287    0.0000 C   0  0  0  0  0  0  0  0  0  0  0  0
    8.2434  -22.7180    0.0000 C   0  0  0  0  0  0  0  0  0  0  0  0
    6.9482  -23.5467    0.0000 C   0  0  0  0  0  0  0  0  0  0  0  0
    8.2534  -23.4199    0.0000 C   0  0  0  0  0  0  0  0  0  0  0  0
    6.1926  -23.8797    0.0000 C   0  0  0  0  0  0  0  0  0  0  0  0
    8.8905  -23.8607    0.0000 C   0  0  0  0  0  0  0  0  0  0  0  0
    6.1992  -24.7056    0.0000 C   0  0  0  0  0  0  0  0  0  0  0  0
    8.8961  -24.6823    0.0000 C   0  0  0  0  0  0  0  0  0  0  0  0
    6.9622  -25.0256    0.0000 O   0  0  0  0  0  0  0  0  0  0  0  0
    8.1328  -25.0216    0.0000 C   0  0  0  0  0  0  0  0  0  0  0  0
    6.9769  -25.7759    0.0000 C   0  0  0  0  0  0  0  0  0  0  0  0
    8.2508  -25.8253    0.0000 C   0  0  0  0  0  0  0  0  0  0  0  0
    7.5532  -26.2741    0.0000 C   0  0  0  0  0  0  0  0  0  0  0  0
    7.5502  -21.4570    0.0000 O   0  0  0  0  0  0  0  0  0  0  0  0
    6.1041  -22.3838    0.0000 C   0  0  0  0  0  0  0  0  0  0  0  0
    9.6821  -24.0726    0.0000 C   0  0  0  0  0  0  0  0  0  0  0  0
    9.5803  -25.1283    0.0000 O   0  0  0  0  0  0  0  0  0  0  0  0
    8.9956  -26.1721    0.0000 O   0  0  0  0  0  0  0  0  0  0  0  0
    7.4205  -24.6181    0.0000 C   0  0  0  0  0  0  0  0  0  0  0  0
    7.5569  -27.0984    0.0000 C   0  0  0  0  0  0  0  0  0  0  0  0
    6.1137  -26.1884    0.0000 O   0  0  0  0  0  0  0  0  0  0  0  0
    5.5126  -25.1693    0.0000 C   0  0  0  0  0  0  0  0  0  0  0  0
    4.7788  -24.7999    0.0000 C   0  0  0  0  0  0  0  0  0  0  0  0
    7.5935  -23.0748    0.0000 N   0  0  0  0  0  0  0  0  0  0  0  0
   10.3964  -25.1470    0.0000 C   0  0  0  0  0  0  0  0  0  0  0  0
   10.7899  -25.8610    0.0000 O   0  0  0  0  0  0  0  0  0  0  0  0
   11.6027  -25.8839    0.0000 C   0  0  0  0  0  0  0  0  0  0  0  0
   12.0267  -25.1845    0.0000 C   0  0  0  0  0  0  0  0  0  0  0  0
   11.6331  -24.4705    0.0000 C   0  0  0  0  0  0  0  0  0  0  0  0
   10.8131  -24.4469    0.0000 C   0  0  0  0  0  0  0  0  0  0  0  0
   12.0001  -26.6022    0.0000 C   0  0  0  0  0  0  0  0  0  0  0  0
   12.0580  -23.7705    0.0000 N   0  0  0  0  0  0  0  0  0  0  0  0
   12.8795  -23.7866    0.0000 C   0  0  0  0  0  0  0  0  0  0  0  0
   11.6616  -23.0466    0.0000 C   0  0  0  0  0  0  0  0  0  0  0  0
    9.8780  -26.0021    0.0000 H   0  0  0  0  0  0  0  0  0  0  0  0
    5.5032  -23.4272    0.0000 O   0  0  0  0  0  0  0  0  0  0  0  0
    5.5005  -22.6156    0.0000 C   0  0  0  0  0  0  0  0  0  0  0  0
    4.9989  -21.9596    0.0000 O   0  0  0  0  0  0  0  0  0  0  0  0
    5.3881  -24.0560    0.0000 C   0  0  0  0  0  0  0  0  0  0  0  0
    8.4220  -22.2708    0.0000 C   0  0  0  0  0  0  0  0  0  0  0  0
    8.4070  -21.4195    0.0000 C   0  0  0  0  0  0  0  0  0  0  0  0
    9.2732  -22.2558    0.0000 C   0  0  0  0  0  0  0  0  0  0  0  0
    9.2579  -21.4049    0.0000 N   0  0  0  0  0  0  0  0  0  0  0  0
    9.0940  -22.7155    0.0000 C   0  0  0  0  0  0  0  0  0  0  0  0
    9.9748  -20.9458    0.0000 C   0  0  0  0  0  0  0  0  0  0  0  0
   10.7309  -21.3370    0.0000 C   0  0  0  0  0  0  0  0  0  0  0  0
    9.9356  -20.0952    0.0000 C   0  0  0  0  0  0  0  0  0  0  0  0
   10.6538  -19.6391    0.0000 C   0  0  0  0  0  0  0  0  0  0  0  0
   10.6150  -18.7895    0.0000 C   0  0  0  0  0  0  0  0  0  0  0  0
    9.8583  -18.3974    0.0000 N   0  0  0  0  0  0  0  0  0  0  0  0
    9.1816  -19.7094    0.0000 C   0  0  0  0  0  0  0  0  0  0  0  0
    9.1398  -18.8614    0.0000 C   0  0  0  0  0  0  0  0  0  0  0  0
    8.3857  -18.4755    0.0000 N   0  0  0  0  0  0  0  0  0  0  0  0
    7.6731  -18.9364    0.0000 C   0  0  0  0  0  0  0  0  0  0  0  0
    7.7191  -19.7873    0.0000 C   0  0  0  0  0  0  0  0  0  0  0  0
    8.4736  -20.1693    0.0000 C   0  0  0  0  0  0  0  0  0  0  0  0
    9.2918  -23.1458    0.0000 O   0  0  0  0  0  0  0  0  0  0  0  0
   10.4181  -23.7346    0.0000 O   0  0  0  0  0  0  0  0  0  0  0  0
    7.3428  -22.6278    0.0000 H   0  0  0  0  0  0  0  0  0  0  0  0
  9 18  1  6
 13 19  2  0
 11 20  1  6
 14 21  1  1
 12 22  2  0
  8 23  1  6
 23 24  1  0
  4 25  1  0
 26 18  1  0
 26 27  1  0
 26 31  1  0
 27 28  1  0
 28 29  1  0
 29 30  1  0
 30 31  1  0
 28 32  1  1
 30 33  1  1
 33 34  1  0
 33 35  1  0
 26 36  1  6
  6 37  1  0
 37 38  1  0
 25 38  1  0
 38 39  2  0
  6 40  1  6
 25 41  1  0
 42 41  1  0
  1  2  1  0
  1  3  1  0
  2  4  1  0
 41 43  1  0
 43 44  1  0
 44 42  1  0
  3  5  1  0
  3 45  1  6
  4  6  1  0
 44 46  1  0
  5  7  1  0
 46 47  1  1
  6  8  1  0
 46 48  1  0
  7  9  1  0
 48 49  2  0
  8 10  1  0
 49 50  1  0
  9 11  1  0
 50 51  2  0
 51 53  1  0
 52 48  1  0
 10 12  1  0
 11 13  1  0
 52 53  1  0
 12 14  1  0
 53 54  2  0
 13 14  1  0
 54 55  1  0
  1 15  2  0
 55 56  2  0
  2 16  1  1
 56 57  1  0
 57 52  2  0
  7 17  1  6
  7 58  1  0
 31 59  1  6
  4 60  1  6
M  END

> <chembl_id>
CHEMBL583093

> <chembl_pref_name>
None


$$$$

     RDKit          2D

 60 65  0  0  0  0  0  0  0  0999 V2000
   17.2841  -22.4811    0.0000 C   0  0  0  0  0  0  0  0  0  0  0  0
   16.5751  -22.9266    0.0000 C   0  0  0  0  0  0  0  0  0  0  0  0
   17.9763  -22.9159    0.0000 C   0  0  0  0  0  0  0  0  0  0  0  0
   16.6806  -23.7449    0.0000 C   0  0  0  0  0  0  0  0  0  0  0  0
   17.9863  -23.6182    0.0000 C   0  0  0  0  0  0  0  0  0  0  0  0
   15.9246  -24.0781    0.0000 C   0  0  0  0  0  0  0  0  0  0  0  0
   18.6236  -24.0590    0.0000 C   0  0  0  0  0  0  0  0  0  0  0  0
   15.9313  -24.9044    0.0000 C   0  0  0  0  0  0  0  0  0  0  0  0
   18.6292  -24.8809    0.0000 C   0  0  0  0  0  0  0  0  0  0  0  0
   16.6946  -25.2245    0.0000 O   0  0  0  0  0  0  0  0  0  0  0  0
   17.8656  -25.2204    0.0000 C   0  0  0  0  0  0  0  0  0  0  0  0
   16.7093  -25.9750    0.0000 C   0  0  0  0  0  0  0  0  0  0  0  0
   17.9836  -26.0244    0.0000 C   0  0  0  0  0  0  0  0  0  0  0  0
   17.2858  -26.4733    0.0000 C   0  0  0  0  0  0  0  0  0  0  0  0
   17.2828  -21.6544    0.0000 O   0  0  0  0  0  0  0  0  0  0  0  0
   15.8362  -22.5815    0.0000 C   0  0  0  0  0  0  0  0  0  0  0  0
   19.4155  -24.2710    0.0000 C   0  0  0  0  0  0  0  0  0  0  0  0
   19.3137  -25.3272    0.0000 O   0  0  0  0  0  0  0  0  0  0  0  0
   18.7288  -26.3713    0.0000 O   0  0  0  0  0  0  0  0  0  0  0  0
   17.1530  -24.8167    0.0000 C   0  0  0  0  0  0  0  0  0  0  0  0
   17.2895  -27.2979    0.0000 C   0  0  0  0  0  0  0  0  0  0  0  0
   15.8458  -26.3877    0.0000 O   0  0  0  0  0  0  0  0  0  0  0  0
   15.2444  -25.3681    0.0000 C   0  0  0  0  0  0  0  0  0  0  0  0
   14.5103  -24.9986    0.0000 C   0  0  0  0  0  0  0  0  0  0  0  0
   17.3261  -23.2729    0.0000 N   0  0  0  0  0  0  0  0  0  0  0  0
   20.1301  -25.3458    0.0000 C   0  0  0  0  0  0  0  0  0  0  0  0
   20.5238  -26.0602    0.0000 O   0  0  0  0  0  0  0  0  0  0  0  0
   21.3368  -26.0830    0.0000 C   0  0  0  0  0  0  0  0  0  0  0  0
   21.7610  -25.3835    0.0000 C   0  0  0  0  0  0  0  0  0  0  0  0
   21.3673  -24.6691    0.0000 C   0  0  0  0  0  0  0  0  0  0  0  0
   20.5469  -24.6455    0.0000 C   0  0  0  0  0  0  0  0  0  0  0  0
   21.7344  -26.8016    0.0000 C   0  0  0  0  0  0  0  0  0  0  0  0
   21.7923  -23.9688    0.0000 N   0  0  0  0  0  0  0  0  0  0  0  0
   22.6142  -23.9849    0.0000 C   0  0  0  0  0  0  0  0  0  0  0  0
   21.3958  -23.2447    0.0000 C   0  0  0  0  0  0  0  0  0  0  0  0
   19.6117  -26.2010    0.0000 H   0  0  0  0  0  0  0  0  0  0  0  0
   15.2350  -23.6253    0.0000 O   0  0  0  0  0  0  0  0  0  0  0  0
   15.2324  -22.8136    0.0000 C   0  0  0  0  0  0  0  0  0  0  0  0
   14.7305  -22.1572    0.0000 O   0  0  0  0  0  0  0  0  0  0  0  0
   15.1198  -24.2545    0.0000 C   0  0  0  0  0  0  0  0  0  0  0  0
   18.1549  -22.4685    0.0000 C   0  0  0  0  0  0  0  0  0  0  0  0
   18.1399  -21.6169    0.0000 C   0  0  0  0  0  0  0  0  0  0  0  0
   19.0065  -22.4535    0.0000 C   0  0  0  0  0  0  0  0  0  0  0  0
   18.9912  -21.6024    0.0000 N   0  0  0  0  0  0  0  0  0  0  0  0
   18.8271  -22.9134    0.0000 C   0  0  0  0  0  0  0  0  0  0  0  0
   19.7083  -21.1430    0.0000 C   0  0  0  0  0  0  0  0  0  0  0  0
   19.6691  -20.2922    0.0000 C   0  0  0  0  0  0  0  0  0  0  0  0
   20.3876  -19.8359    0.0000 C   0  0  0  0  0  0  0  0  0  0  0  0
   20.3488  -18.9859    0.0000 C   0  0  0  0  0  0  0  0  0  0  0  0
   19.5918  -18.5936    0.0000 N   0  0  0  0  0  0  0  0  0  0  0  0
   18.9148  -19.9061    0.0000 C   0  0  0  0  0  0  0  0  0  0  0  0
   18.8730  -19.0579    0.0000 C   0  0  0  0  0  0  0  0  0  0  0  0
   18.1187  -18.6718    0.0000 N   0  0  0  0  0  0  0  0  0  0  0  0
   17.4057  -19.1328    0.0000 C   0  0  0  0  0  0  0  0  0  0  0  0
   17.4518  -19.9841    0.0000 C   0  0  0  0  0  0  0  0  0  0  0  0
   18.2065  -20.3664    0.0000 C   0  0  0  0  0  0  0  0  0  0  0  0
   21.1432  -20.2290    0.0000 O   0  0  0  0  0  0  0  0  0  0  0  0
   19.0250  -23.3440    0.0000 O   0  0  0  0  0  0  0  0  0  0  0  0
   20.1518  -23.9329    0.0000 O   0  0  0  0  0  0  0  0  0  0  0  0
   17.0752  -22.8260    0.0000 H   0  0  0  0  0  0  0  0  0  0  0  0
  9 18  1  6
 13 19  2  0
 11 20  1  6
 14 21  1  1
 12 22  2  0
  8 23  1  6
 23 24  1  0
  4 25  1  0
 26 18  1  0
 26 27  1  0
 26 31  1  0
 27 28  1  0
 28 29  1  0
 29 30  1  0
 30 31  1  0
 28 32  1  1
 30 33  1  1
 33 34  1  0
 33 35  1  0
 26 36  1  6
  6 37  1  0
 37 38  1  0
 25 38  1  0
 38 39  2  0
  6 40  1  6
 25 41  1  0
 42 41  1  0
  1  2  1  0
  1  3  1  0
  2  4  1  0
 41 43  1  0
 43 44  1  0
 44 42  1  0
  3  5  1  0
  3 45  1  6
  4  6  1  0
 44 46  1  0
  5  7  1  0
 46 47  1  0
  6  8  1  0
 47 48  2  0
  7  9  1  0
 48 49  1  0
  8 10  1  0
 49 50  2  0
 50 52  1  0
 51 47  1  0
  9 11  1  0
 10 12  1  0
 51 52  1  0
 11 13  1  0
 52 53  2  0
 12 14  1  0
 53 54  1  0
 13 14  1  0
 54 55  2  0
  1 15  2  0
 55 56  1  0
 56 51  2  0
  2 16  1  1
 48 57  1  0
  7 17  1  6
  7 58  1  0
 31 59  1  6
  4 60  1  6
M  END

> <chembl_id>
CHEMBL583298

> <chembl_pref_name>
None


$$$$

     RDKit          2D

 60 65  0  0  0  0  0  0  0  0999 V2000
   -2.1407   -0.8107    0.0000 C   0  0  0  0  0  0  0  0  0  0  0  0
   -2.8495   -1.2561    0.0000 C   0  0  0  0  0  0  0  0  0  0  0  0
   -1.4485   -1.2455    0.0000 C   0  0  0  0  0  0  0  0  0  0  0  0
   -2.7442   -2.0743    0.0000 C   0  0  0  0  0  0  0  0  0  0  0  0
   -1.4386   -1.9476    0.0000 C   0  0  0  0  0  0  0  0  0  0  0  0
   -3.5001   -2.4074    0.0000 C   0  0  0  0  0  0  0  0  0  0  0  0
   -0.8014   -2.3884    0.0000 C   0  0  0  0  0  0  0  0  0  0  0  0
   -3.4933   -3.2336    0.0000 C   0  0  0  0  0  0  0  0  0  0  0  0
   -0.7957   -3.2102    0.0000 C   0  0  0  0  0  0  0  0  0  0  0  0
   -2.7301   -3.5537    0.0000 O   0  0  0  0  0  0  0  0  0  0  0  0
   -1.5593   -3.5497    0.0000 C   0  0  0  0  0  0  0  0  0  0  0  0
   -2.7155   -4.3042    0.0000 C   0  0  0  0  0  0  0  0  0  0  0  0
   -1.4412   -4.3535    0.0000 C   0  0  0  0  0  0  0  0  0  0  0  0
   -2.1391   -4.8025    0.0000 C   0  0  0  0  0  0  0  0  0  0  0  0
   -2.1421    0.0159    0.0000 O   0  0  0  0  0  0  0  0  0  0  0  0
   -3.5885   -0.9110    0.0000 C   0  0  0  0  0  0  0  0  0  0  0  0
   -0.0096   -2.6004    0.0000 C   0  0  0  0  0  0  0  0  0  0  0  0
   -0.1114   -3.6564    0.0000 O   0  0  0  0  0  0  0  0  0  0  0  0
   -0.6962   -4.7004    0.0000 O   0  0  0  0  0  0  0  0  0  0  0  0
   -2.2717   -3.1461    0.0000 C   0  0  0  0  0  0  0  0  0  0  0  0
   -2.1354   -5.6269    0.0000 C   0  0  0  0  0  0  0  0  0  0  0  0
   -3.5788   -4.7168    0.0000 O   0  0  0  0  0  0  0  0  0  0  0  0
   -4.1802   -3.6973    0.0000 C   0  0  0  0  0  0  0  0  0  0  0  0
   -4.9142   -3.3279    0.0000 C   0  0  0  0  0  0  0  0  0  0  0  0
   -2.0987   -1.6023    0.0000 N   0  0  0  0  0  0  0  0  0  0  0  0
    0.7049   -3.6750    0.0000 C   0  0  0  0  0  0  0  0  0  0  0  0
    1.0987   -4.3893    0.0000 O   0  0  0  0  0  0  0  0  0  0  0  0
    1.9117   -4.4122    0.0000 C   0  0  0  0  0  0  0  0  0  0  0  0
    2.3358   -3.7127    0.0000 C   0  0  0  0  0  0  0  0  0  0  0  0
    1.9420   -2.9984    0.0000 C   0  0  0  0  0  0  0  0  0  0  0  0
    1.1218   -2.9748    0.0000 C   0  0  0  0  0  0  0  0  0  0  0  0
    2.3091   -5.1308    0.0000 C   0  0  0  0  0  0  0  0  0  0  0  0
    2.3670   -2.2981    0.0000 N   0  0  0  0  0  0  0  0  0  0  0  0
    3.1887   -2.3143    0.0000 C   0  0  0  0  0  0  0  0  0  0  0  0
    1.9706   -1.5741    0.0000 C   0  0  0  0  0  0  0  0  0  0  0  0
    0.1866   -4.5302    0.0000 H   0  0  0  0  0  0  0  0  0  0  0  0
   -4.1896   -1.9548    0.0000 O   0  0  0  0  0  0  0  0  0  0  0  0
   -4.1923   -1.1431    0.0000 C   0  0  0  0  0  0  0  0  0  0  0  0
   -4.6940   -0.4869    0.0000 O   0  0  0  0  0  0  0  0  0  0  0  0
   -4.3047   -2.5839    0.0000 C   0  0  0  0  0  0  0  0  0  0  0  0
   -1.2700   -0.7980    0.0000 C   0  0  0  0  0  0  0  0  0  0  0  0
   -1.2850    0.0534    0.0000 C   0  0  0  0  0  0  0  0  0  0  0  0
   -0.4186   -0.7830    0.0000 C   0  0  0  0  0  0  0  0  0  0  0  0
   -0.4338    0.0680    0.0000 N   0  0  0  0  0  0  0  0  0  0  0  0
   -0.5979   -1.2430    0.0000 C   0  0  0  0  0  0  0  0  0  0  0  0
    0.2832    0.5274    0.0000 C   0  0  0  0  0  0  0  0  0  0  0  0
    0.2440    1.3780    0.0000 C   0  0  0  0  0  0  0  0  0  0  0  0
    0.9624    1.8343    0.0000 C   0  0  0  0  0  0  0  0  0  0  0  0
    0.9236    2.6842    0.0000 C   0  0  0  0  0  0  0  0  0  0  0  0
    0.1667    3.0763    0.0000 N   0  0  0  0  0  0  0  0  0  0  0  0
   -0.5102    1.7641    0.0000 C   0  0  0  0  0  0  0  0  0  0  0  0
   -0.5520    2.6121    0.0000 C   0  0  0  0  0  0  0  0  0  0  0  0
   -1.3062    2.9982    0.0000 C   0  0  0  0  0  0  0  0  0  0  0  0
   -2.0191    2.5373    0.0000 C   0  0  0  0  0  0  0  0  0  0  0  0
   -1.9730    1.6861    0.0000 C   0  0  0  0  0  0  0  0  0  0  0  0
   -1.2184    1.3039    0.0000 N   0  0  0  0  0  0  0  0  0  0  0  0
    1.7179    1.4413    0.0000 O   0  0  0  0  0  0  0  0  0  0  0  0
   -0.4000   -1.6734    0.0000 O   0  0  0  0  0  0  0  0  0  0  0  0
    0.7268   -2.2623    0.0000 O   0  0  0  0  0  0  0  0  0  0  0  0
   -2.3495   -1.1555    0.0000 H   0  0  0  0  0  0  0  0  0  0  0  0
  9 18  1  6
 13 19  2  0
 11 20  1  6
 14 21  1  1
 12 22  2  0
  8 23  1  6
 23 24  1  0
  4 25  1  0
 26 18  1  0
 26 27  1  0
 26 31  1  0
 27 28  1  0
 28 29  1  0
 29 30  1  0
 30 31  1  0
 28 32  1  1
 30 33  1  1
 33 34  1  0
 33 35  1  0
 26 36  1  6
  6 37  1  0
 37 38  1  0
 25 38  1  0
 38 39  2  0
  6 40  1  6
 25 41  1  0
 42 41  1  0
  1  2  1  0
  1  3  1  0
  2  4  1  0
 41 43  1  0
 43 44  1  0
 44 42  1  0
  3  5  1  0
  3 45  1  6
  4  6  1  0
 44 46  1  0
  5  7  1  0
 46 47  1  0
  6  8  1  0
 47 48  2  0
  7  9  1  0
 48 49  1  0
  8 10  1  0
 49 50  2  0
 50 52  1  0
 51 47  1  0
  9 11  1  0
 10 12  1  0
 51 52  1  0
 11 13  1  0
 52 53  2  0
 12 14  1  0
 53 54  1  0
 13 14  1  0
 54 55  2  0
  1 15  2  0
 55 56  1  0
 56 51  2  0
  2 16  1  1
 48 57  1  0
  7 17  1  6
  7 58  1  0
 31 59  1  6
  4 60  1  6
M  END

> <chembl_id>
CHEMBL583299

> <chembl_pref_name>
None


$$$$

     RDKit          2D

 82 88  0  0  0  0  0  0  0  0999 V2000
   18.2080   -8.1839    0.0000 C   0  0  0  0  0  0  0  0  0  0  0  0
   17.4965   -7.7661    0.0000 C   0  0  0  0  0  0  0  0  0  0  0  0
   17.5049   -6.9454    0.0000 O   0  0  0  0  0  0  0  0  0  0  0  0
   18.2176   -6.5381    0.0000 C   0  0  0  0  0  0  0  0  0  0  0  0
   18.9290   -6.9559    0.0000 C   0  0  0  0  0  0  0  0  0  0  0  0
   18.9277   -7.7809    0.0000 C   0  0  0  0  0  0  0  0  0  0  0  0
   19.6392   -8.1986    0.0000 O   0  0  0  0  0  0  0  0  0  0  0  0
   18.1995   -9.0088    0.0000 O   0  0  0  0  0  0  0  0  0  0  0  0
   19.6453   -6.5465    0.0000 O   0  0  0  0  0  0  0  0  0  0  0  0
   18.2224   -5.7131    0.0000 C   0  0  0  0  0  0  0  0  0  0  0  0
   17.5104   -5.2965    0.0000 O   0  0  0  0  0  0  0  0  0  0  0  0
   16.7785   -8.1723    0.0000 O   0  0  0  0  0  0  0  0  0  0  0  0
   13.9292   -6.5167    0.0000 O   0  0  0  0  0  0  0  0  0  0  0  0
   14.6417   -6.9292    0.0000 C   0  0  0  0  0  0  0  0  0  0  0  0
   14.6387   -7.7534    0.0000 C   0  0  0  0  0  0  0  0  0  0  0  0
   15.3471   -8.1658    0.0000 C   0  0  0  0  0  0  0  0  0  0  0  0
   16.0630   -7.7586    0.0000 C   0  0  0  0  0  0  0  0  0  0  0  0
   16.0660   -6.9343    0.0000 C   0  0  0  0  0  0  0  0  0  0  0  0
   15.3531   -6.5174    0.0000 O   0  0  0  0  0  0  0  0  0  0  0  0
   16.7824   -6.5251    0.0000 C   0  0  0  0  0  0  0  0  0  0  0  0
   14.9292   -8.8750    0.0000 C   0  0  0  0  0  0  0  0  0  0  0  0
   15.7542   -8.8750    0.0000 O   0  0  0  0  0  0  0  0  0  0  0  0
   16.5792   -8.8771    0.0000 C   0  0  0  0  0  0  0  0  0  0  0  0
   14.6375   -6.1042    0.0000 H   0  0  0  0  0  0  0  0  0  0  0  0
   17.4917   -8.5875    0.0000 H   0  0  0  0  0  0  0  0  0  0  0  0
   14.6574   -4.4500    0.0000 O   0  0  0  0  0  0  0  0  0  0  0  0
   15.0563   -3.7306    0.0000 C   0  0  0  0  0  0  0  0  0  0  0  0
   15.8798   -3.7184    0.0000 O   0  0  0  0  0  0  0  0  0  0  0  0
   16.2788   -3.0031    0.0000 C   0  0  0  0  0  0  0  0  0  0  0  0
   15.8587   -2.2954    0.0000 C   0  0  0  0  0  0  0  0  0  0  0  0
   15.0352   -2.3076    0.0000 C   0  0  0  0  0  0  0  0  0  0  0  0
   14.6318   -3.0275    0.0000 C   0  0  0  0  0  0  0  0  0  0  0  0
   17.1038   -2.9920    0.0000 C   0  0  0  0  0  0  0  0  0  0  0  0
   14.6129   -1.5989    0.0000 N   0  0  0  0  0  0  0  0  0  0  0  0
   15.0155   -0.8787    0.0000 C   0  0  0  0  0  0  0  0  0  0  0  0
   13.7880   -1.6102    0.0000 C   0  0  0  0  0  0  0  0  0  0  0  0
   13.8069   -3.0409    0.0000 O   0  0  0  0  0  0  0  0  0  0  0  0
   15.4722   -4.4431    0.0000 H   0  0  0  0  0  0  0  0  0  0  0  0
   13.2167   -3.6208    0.0000 C   0  0  0  0  0  0  0  0  0  0  0  0
   12.5005   -3.2042    0.0000 C   0  0  0  0  0  0  0  0  0  0  0  0
   11.7802   -3.6208    0.0000 C   0  0  0  0  0  0  0  0  0  0  0  0
   12.5005   -2.3750    0.0000 C   0  0  0  0  0  0  0  0  0  0  0  0
   11.7802   -4.4500    0.0000 C   0  0  0  0  0  0  0  0  0  0  0  0
   11.0640   -3.2042    0.0000 O   0  0  0  0  0  0  0  0  0  0  0  0
   13.2167   -4.4500    0.0000 C   0  0  0  0  0  0  0  0  0  0  0  0
   13.9371   -4.8625    0.0000 C   0  0  0  0  0  0  0  0  0  0  0  0
   13.2250   -5.2750    0.0000 O   0  0  0  0  0  0  0  0  0  0  0  0
   12.5068   -5.6911    0.0000 C   0  0  0  0  0  0  0  0  0  0  0  0
   13.9371   -5.6917    0.0000 C   0  0  0  0  0  0  0  0  0  0  0  0
   13.2167   -6.1083    0.0000 C   0  0  0  0  0  0  0  0  0  0  0  0
   13.2167   -6.9375    0.0000 C   0  0  0  0  0  0  0  0  0  0  0  0
   12.5005   -7.3542    0.0000 C   0  0  0  0  0  0  0  0  0  0  0  0
   12.5005   -8.1833    0.0000 O   0  0  0  0  0  0  0  0  0  0  0  0
   11.7802   -6.1083    0.0000 C   0  0  0  0  0  0  0  0  0  0  0  0
   11.7802   -6.9375    0.0000 O   0  0  0  0  0  0  0  0  0  0  0  0
   11.0709   -6.5167    0.0000 C   0  0  0  0  0  0  0  0  0  0  0  0
   11.0707   -7.3458    0.0000 C   0  0  0  0  0  0  0  0  0  0  0  0
   12.4933   -4.8648    0.0000 C   0  0  0  0  0  0  0  0  0  0  0  0
   12.5000   -4.0375    0.0000 C   0  0  0  0  0  0  0  0  0  0  0  0
   13.9319   -7.3488    0.0000 C   0  0  0  0  0  0  0  0  0  0  0  0
   14.7584   -5.6917    0.0000 C   0  0  0  0  0  0  0  0  0  0  0  0
   11.0640   -5.6917    0.0000 C   0  0  0  0  0  0  0  0  0  0  0  0
   11.0582   -4.8568    0.0000 C   0  0  0  0  0  0  0  0  0  0  0  0
   10.2624   -4.6042    0.0000 N   0  0  0  0  0  0  0  0  0  0  0  0
    9.7763   -5.2830    0.0000 C   0  0  0  0  0  0  0  0  0  0  0  0
   10.2717   -5.9550    0.0000 O   0  0  0  0  0  0  0  0  0  0  0  0
    8.9513   -5.2887    0.0000 O   0  0  0  0  0  0  0  0  0  0  0  0
   10.6459   -6.4042    0.0000 C   0  0  0  0  0  0  0  0  0  0  0  0
    9.8226   -3.9051    0.0000 C   0  0  0  0  0  0  0  0  0  0  0  0
   10.2072   -3.1754    0.0000 C   0  0  0  0  0  0  0  0  0  0  0  0
    9.7675   -2.4773    0.0000 C   0  0  0  0  0  0  0  0  0  0  0  0
   10.1521   -1.7475    0.0000 C   0  0  0  0  0  0  0  0  0  0  0  0
    9.7113   -1.0504    0.0000 N   0  0  0  0  0  0  0  0  0  0  0  0
   10.2122   -0.3922    0.0000 C   0  0  0  0  0  0  0  0  0  0  0  0
    9.7432    0.2865    0.0000 N   0  0  0  0  0  0  0  0  0  0  0  0
    8.9333   -0.7745    0.0000 C   0  0  0  0  0  0  0  0  0  0  0  0
    8.9532    0.0492    0.0000 C   0  0  0  0  0  0  0  0  0  0  0  0
    8.2509    0.4764    0.0000 C   0  0  0  0  0  0  0  0  0  0  0  0
    7.5282    0.0812    0.0000 C   0  0  0  0  0  0  0  0  0  0  0  0
    7.5122   -0.7458    0.0000 C   0  0  0  0  0  0  0  0  0  0  0  0
    8.2152   -1.1694    0.0000 N   0  0  0  0  0  0  0  0  0  0  0  0
   11.0500   -4.0292    0.0000 H   0  0  0  0  0  0  0  0  0  0  0  0
 22 23  1  0
 17 12  1  6
  2 12  1  0
  5  6  1  0
  6  7  1  6
  1  2  1  0
 14 24  1  1
  1  8  1  1
  2 25  1  1
  1  6  1  0
  5  9  1  1
 13 14  1  0
 14 15  1  0
  2  3  1  0
  4 10  1  6
  3  4  1  0
 14 19  1  0
 15 16  1  0
 16 17  1  0
 17 18  1  0
 18 19  1  0
 26 27  1  0
 27 28  1  0
 27 32  1  0
 28 29  1  0
 29 30  1  0
 30 31  1  0
 31 32  1  0
 29 33  1  1
 31 34  1  1
 34 35  1  0
 34 36  1  0
 32 37  1  6
 18 20  1  1
 27 38  1  6
 10 11  1  0
 16 21  1  1
 16 22  1  0
 45 47  1  6
 47 48  1  0
 46 26  1  6
 46 49  1  0
 49 50  1  0
 50 51  1  0
 39 40  1  0
 51 52  1  0
 52 53  2  0
 52 55  1  0
 40 41  1  0
 62 54  1  0
 51 60  1  1
 49 61  1  1
 54 55  1  0
 40 42  1  6
 62 63  1  0
 54 56  1  1
 56 57  1  0
 41 43  1  0
 43 58  1  6
 63 64  1  0
 64 65  1  0
 65 66  1  0
 66 62  1  0
 65 67  2  0
 45 59  1  0
 62 68  1  6
 41 44  2  0
 50 13  1  1
 64 69  1  0
 43 63  1  0
 69 70  1  0
 70 71  1  0
 71 72  1  0
 72 73  1  0
 73 74  1  0
 39 45  1  0
 74 75  2  0
 75 77  1  0
 76 73  1  0
 45 46  1  0
 76 77  2  0
 77 78  1  0
 78 79  2  0
 79 80  1  0
 80 81  2  0
 81 76  1  0
  4  5  1  0
 63 82  1  1
M  END

> <chembl_id>
CHEMBL1224604

> <chembl_pref_name>
None


$$$$

     RDKit          2D

 82 88  0  0  0  0  0  0  0  0999 V2000
   18.2080   -8.1839    0.0000 C   0  0  0  0  0  0  0  0  0  0  0  0
   17.4965   -7.7661    0.0000 C   0  0  0  0  0  0  0  0  0  0  0  0
   17.5049   -6.9454    0.0000 O   0  0  0  0  0  0  0  0  0  0  0  0
   18.2176   -6.5381    0.0000 C   0  0  0  0  0  0  0  0  0  0  0  0
   18.9290   -6.9559    0.0000 C   0  0  0  0  0  0  0  0  0  0  0  0
   18.9277   -7.7809    0.0000 C   0  0  0  0  0  0  0  0  0  0  0  0
   19.6392   -8.1986    0.0000 O   0  0  0  0  0  0  0  0  0  0  0  0
   18.1995   -9.0088    0.0000 O   0  0  0  0  0  0  0  0  0  0  0  0
   19.6453   -6.5465    0.0000 O   0  0  0  0  0  0  0  0  0  0  0  0
   18.2224   -5.7131    0.0000 C   0  0  0  0  0  0  0  0  0  0  0  0
   17.5104   -5.2965    0.0000 O   0  0  0  0  0  0  0  0  0  0  0  0
   16.7785   -8.1723    0.0000 O   0  0  0  0  0  0  0  0  0  0  0  0
   13.9292   -6.5167    0.0000 O   0  0  0  0  0  0  0  0  0  0  0  0
   14.6417   -6.9292    0.0000 C   0  0  0  0  0  0  0  0  0  0  0  0
   14.6387   -7.7534    0.0000 C   0  0  0  0  0  0  0  0  0  0  0  0
   15.3471   -8.1658    0.0000 C   0  0  0  0  0  0  0  0  0  0  0  0
   16.0630   -7.7586    0.0000 C   0  0  0  0  0  0  0  0  0  0  0  0
   16.0660   -6.9343    0.0000 C   0  0  0  0  0  0  0  0  0  0  0  0
   15.3531   -6.5174    0.0000 O   0  0  0  0  0  0  0  0  0  0  0  0
   16.7824   -6.5251    0.0000 C   0  0  0  0  0  0  0  0  0  0  0  0
   14.9292   -8.8750    0.0000 C   0  0  0  0  0  0  0  0  0  0  0  0
   15.7542   -8.8750    0.0000 O   0  0  0  0  0  0  0  0  0  0  0  0
   16.5792   -8.8771    0.0000 C   0  0  0  0  0  0  0  0  0  0  0  0
   14.6375   -6.1042    0.0000 H   0  0  0  0  0  0  0  0  0  0  0  0
   17.4917   -8.5875    0.0000 H   0  0  0  0  0  0  0  0  0  0  0  0
   14.6574   -4.4500    0.0000 O   0  0  0  0  0  0  0  0  0  0  0  0
   15.0563   -3.7306    0.0000 C   0  0  0  0  0  0  0  0  0  0  0  0
   15.8798   -3.7184    0.0000 O   0  0  0  0  0  0  0  0  0  0  0  0
   16.2788   -3.0031    0.0000 C   0  0  0  0  0  0  0  0  0  0  0  0
   15.8587   -2.2954    0.0000 C   0  0  0  0  0  0  0  0  0  0  0  0
   15.0352   -2.3076    0.0000 C   0  0  0  0  0  0  0  0  0  0  0  0
   14.6318   -3.0275    0.0000 C   0  0  0  0  0  0  0  0  0  0  0  0
   17.1038   -2.9920    0.0000 C   0  0  0  0  0  0  0  0  0  0  0  0
   14.6129   -1.5989    0.0000 N   0  0  0  0  0  0  0  0  0  0  0  0
   15.0155   -0.8787    0.0000 C   0  0  0  0  0  0  0  0  0  0  0  0
   13.7880   -1.6102    0.0000 C   0  0  0  0  0  0  0  0  0  0  0  0
   13.8069   -3.0409    0.0000 O   0  0  0  0  0  0  0  0  0  0  0  0
   15.4722   -4.4431    0.0000 H   0  0  0  0  0  0  0  0  0  0  0  0
   13.2167   -3.6208    0.0000 C   0  0  0  0  0  0  0  0  0  0  0  0
   12.5005   -3.2042    0.0000 C   0  0  0  0  0  0  0  0  0  0  0  0
   11.7802   -3.6208    0.0000 C   0  0  0  0  0  0  0  0  0  0  0  0
   12.5005   -2.3750    0.0000 C   0  0  0  0  0  0  0  0  0  0  0  0
   11.7802   -4.4500    0.0000 C   0  0  0  0  0  0  0  0  0  0  0  0
   11.0640   -3.2042    0.0000 O   0  0  0  0  0  0  0  0  0  0  0  0
   13.2167   -4.4500    0.0000 C   0  0  0  0  0  0  0  0  0  0  0  0
   13.9371   -4.8625    0.0000 C   0  0  0  0  0  0  0  0  0  0  0  0
   13.2250   -5.2750    0.0000 O   0  0  0  0  0  0  0  0  0  0  0  0
   12.5068   -5.6911    0.0000 C   0  0  0  0  0  0  0  0  0  0  0  0
   13.9371   -5.6917    0.0000 C   0  0  0  0  0  0  0  0  0  0  0  0
   13.2167   -6.1083    0.0000 C   0  0  0  0  0  0  0  0  0  0  0  0
   13.2167   -6.9375    0.0000 C   0  0  0  0  0  0  0  0  0  0  0  0
   12.5005   -7.3542    0.0000 C   0  0  0  0  0  0  0  0  0  0  0  0
   12.5005   -8.1833    0.0000 O   0  0  0  0  0  0  0  0  0  0  0  0
   11.7802   -6.1083    0.0000 C   0  0  0  0  0  0  0  0  0  0  0  0
   11.7802   -6.9375    0.0000 O   0  0  0  0  0  0  0  0  0  0  0  0
   11.0709   -6.5167    0.0000 C   0  0  0  0  0  0  0  0  0  0  0  0
   11.0707   -7.3458    0.0000 C   0  0  0  0  0  0  0  0  0  0  0  0
   12.4933   -4.8648    0.0000 C   0  0  0  0  0  0  0  0  0  0  0  0
   12.5000   -4.0375    0.0000 C   0  0  0  0  0  0  0  0  0  0  0  0
   13.9319   -7.3488    0.0000 C   0  0  0  0  0  0  0  0  0  0  0  0
   14.7584   -5.6917    0.0000 C   0  0  0  0  0  0  0  0  0  0  0  0
   11.0640   -5.6917    0.0000 C   0  0  0  0  0  0  0  0  0  0  0  0
   11.0582   -4.8568    0.0000 C   0  0  0  0  0  0  0  0  0  0  0  0
   10.2624   -4.6042    0.0000 N   0  0  0  0  0  0  0  0  0  0  0  0
    9.7763   -5.2830    0.0000 C   0  0  0  0  0  0  0  0  0  0  0  0
   10.2717   -5.9550    0.0000 O   0  0  0  0  0  0  0  0  0  0  0  0
    8.9513   -5.2887    0.0000 O   0  0  0  0  0  0  0  0  0  0  0  0
   10.6459   -6.4042    0.0000 C   0  0  0  0  0  0  0  0  0  0  0  0
    9.8226   -3.9051    0.0000 C   0  0  0  0  0  0  0  0  0  0  0  0
   10.2072   -3.1754    0.0000 C   0  0  0  0  0  0  0  0  0  0  0  0
    9.7675   -2.4773    0.0000 C   0  0  0  0  0  0  0  0  0  0  0  0
   10.1521   -1.7475    0.0000 C   0  0  0  0  0  0  0  0  0  0  0  0
    9.7113   -1.0504    0.0000 N   0  0  0  0  0  0  0  0  0  0  0  0
   10.2122   -0.3922    0.0000 C   0  0  0  0  0  0  0  0  0  0  0  0
    9.7432    0.2865    0.0000 N   0  0  0  0  0  0  0  0  0  0  0  0
    8.9333   -0.7745    0.0000 C   0  0  0  0  0  0  0  0  0  0  0  0
    8.9532    0.0492    0.0000 C   0  0  0  0  0  0  0  0  0  0  0  0
    7.5282    0.0812    0.0000 C   0  0  0  0  0  0  0  0  0  0  0  0
    7.5122   -0.7458    0.0000 C   0  0  0  0  0  0  0  0  0  0  0  0
   11.0500   -4.0292    0.0000 H   0  0  0  0  0  0  0  0  0  0  0  0
    8.2152   -1.1694    0.0000 C   0  0  0  0  0  0  0  0  0  0  0  0
    8.2509    0.4764    0.0000 N   0  0  0  0  0  0  0  0  0  0  0  0
 22 23  1  0
 17 12  1  6
  2 12  1  0
  5  6  1  0
  6  7  1  6
  1  2  1  0
 14 24  1  1
  1  8  1  1
  2 25  1  1
  1  6  1  0
  5  9  1  1
 13 14  1  0
 14 15  1  0
  2  3  1  0
  4 10  1  6
  3  4  1  0
 14 19  1  0
 15 16  1  0
 16 17  1  0
 17 18  1  0
 18 19  1  0
 26 27  1  0
 27 28  1  0
 27 32  1  0
 28 29  1  0
 29 30  1  0
 30 31  1  0
 31 32  1  0
 29 33  1  1
 31 34  1  1
 34 35  1  0
 34 36  1  0
 32 37  1  6
 18 20  1  1
 27 38  1  6
 10 11  1  0
 16 21  1  1
 16 22  1  0
 45 47  1  6
 47 48  1  0
 46 26  1  6
 46 49  1  0
 49 50  1  0
 50 51  1  0
 39 40  1  0
 51 52  1  0
 52 53  2  0
 52 55  1  0
 40 41  1  0
 62 54  1  0
 51 60  1  1
 49 61  1  1
 54 55  1  0
 40 42  1  6
 62 63  1  0
 54 56  1  1
 56 57  1  0
 41 43  1  0
 43 58  1  6
 63 64  1  0
 64 65  1  0
 65 66  1  0
 66 62  1  0
 65 67  2  0
 45 59  1  0
 62 68  1  6
 41 44  2  0
 50 13  1  1
 64 69  1  0
 43 63  1  0
 69 70  1  0
 70 71  1  0
 71 72  1  0
 72 73  1  0
 73 74  1  0
 39 45  1  0
 74 75  2  0
 75 77  1  0
 76 73  1  0
 45 46  1  0
 76 77  2  0
 77 82  1  0
 82 78  2  0
 78 79  1  0
 79 81  2  0
 81 76  1  0
  4  5  1  0
 63 80  1  1
M  END

> <chembl_id>
CHEMBL1224606

> <chembl_pref_name>
None


$$$$

     RDKit          2D

 91 99  0  0  0  0  0  0  0  0999 V2000
    7.0913   -8.2756    0.0000 C   0  0  0  0  0  0  0  0  0  0  0  0
    6.3799   -7.8577    0.0000 C   0  0  0  0  0  0  0  0  0  0  0  0
    6.3882   -7.0370    0.0000 O   0  0  0  0  0  0  0  0  0  0  0  0
    7.1009   -6.6298    0.0000 C   0  0  0  0  0  0  0  0  0  0  0  0
    7.8124   -7.0475    0.0000 C   0  0  0  0  0  0  0  0  0  0  0  0
    7.8111   -7.8725    0.0000 C   0  0  0  0  0  0  0  0  0  0  0  0
    8.5226   -8.2903    0.0000 O   0  0  0  0  0  0  0  0  0  0  0  0
    7.0828   -9.1005    0.0000 O   0  0  0  0  0  0  0  0  0  0  0  0
    8.5286   -6.6382    0.0000 O   0  0  0  0  0  0  0  0  0  0  0  0
    7.1058   -5.8048    0.0000 C   0  0  0  0  0  0  0  0  0  0  0  0
    5.6618   -8.2639    0.0000 O   0  0  0  0  0  0  0  0  0  0  0  0
    2.8125   -6.6083    0.0000 O   0  0  0  0  0  0  0  0  0  0  0  0
    3.5250   -7.0208    0.0000 C   0  0  0  0  0  0  0  0  0  0  0  0
    3.5220   -7.8450    0.0000 C   0  0  0  0  0  0  0  0  0  0  0  0
    4.2304   -8.2574    0.0000 C   0  0  0  0  0  0  0  0  0  0  0  0
    4.9463   -7.8502    0.0000 C   0  0  0  0  0  0  0  0  0  0  0  0
    4.9493   -7.0259    0.0000 C   0  0  0  0  0  0  0  0  0  0  0  0
    4.2364   -6.6090    0.0000 O   0  0  0  0  0  0  0  0  0  0  0  0
    5.6657   -6.6167    0.0000 C   0  0  0  0  0  0  0  0  0  0  0  0
    3.8125   -8.9666    0.0000 C   0  0  0  0  0  0  0  0  0  0  0  0
    4.6375   -8.9666    0.0000 O   0  0  0  0  0  0  0  0  0  0  0  0
    5.4625   -8.9687    0.0000 C   0  0  0  0  0  0  0  0  0  0  0  0
    3.5208   -6.1958    0.0000 H   0  0  0  0  0  0  0  0  0  0  0  0
    6.3750   -8.6792    0.0000 H   0  0  0  0  0  0  0  0  0  0  0  0
    3.5407   -4.5417    0.0000 O   0  0  0  0  0  0  0  0  0  0  0  0
    3.9397   -3.8222    0.0000 C   0  0  0  0  0  0  0  0  0  0  0  0
    4.7631   -3.8100    0.0000 O   0  0  0  0  0  0  0  0  0  0  0  0
    5.1621   -3.0948    0.0000 C   0  0  0  0  0  0  0  0  0  0  0  0
    4.7421   -2.3870    0.0000 C   0  0  0  0  0  0  0  0  0  0  0  0
    3.9185   -2.3993    0.0000 C   0  0  0  0  0  0  0  0  0  0  0  0
    3.5151   -3.1192    0.0000 C   0  0  0  0  0  0  0  0  0  0  0  0
    5.9871   -3.0836    0.0000 C   0  0  0  0  0  0  0  0  0  0  0  0
    3.4962   -1.6906    0.0000 N   0  0  0  0  0  0  0  0  0  0  0  0
    3.8988   -0.9704    0.0000 C   0  0  0  0  0  0  0  0  0  0  0  0
    2.6713   -1.7019    0.0000 C   0  0  0  0  0  0  0  0  0  0  0  0
    2.6902   -3.1325    0.0000 O   0  0  0  0  0  0  0  0  0  0  0  0
    4.3555   -4.5348    0.0000 H   0  0  0  0  0  0  0  0  0  0  0  0
    2.1000   -3.7125    0.0000 C   0  0  0  0  0  0  0  0  0  0  0  0
    1.3838   -3.2959    0.0000 C   0  0  0  0  0  0  0  0  0  0  0  0
    0.6635   -3.7125    0.0000 C   0  0  0  0  0  0  0  0  0  0  0  0
    1.3838   -2.4667    0.0000 C   0  0  0  0  0  0  0  0  0  0  0  0
    0.6635   -4.5417    0.0000 C   0  0  0  0  0  0  0  0  0  0  0  0
   -0.0527   -3.2959    0.0000 O   0  0  0  0  0  0  0  0  0  0  0  0
    2.1000   -4.5417    0.0000 C   0  0  0  0  0  0  0  0  0  0  0  0
    2.8204   -4.9542    0.0000 C   0  0  0  0  0  0  0  0  0  0  0  0
    2.1083   -5.3667    0.0000 O   0  0  0  0  0  0  0  0  0  0  0  0
    1.3901   -5.7828    0.0000 C   0  0  0  0  0  0  0  0  0  0  0  0
    2.8204   -5.7834    0.0000 C   0  0  0  0  0  0  0  0  0  0  0  0
    2.1000   -6.2000    0.0000 C   0  0  0  0  0  0  0  0  0  0  0  0
    2.1000   -7.0292    0.0000 C   0  0  0  0  0  0  0  0  0  0  0  0
    1.3838   -7.4459    0.0000 C   0  0  0  0  0  0  0  0  0  0  0  0
    1.3838   -8.2750    0.0000 O   0  0  0  0  0  0  0  0  0  0  0  0
    0.6635   -6.2000    0.0000 C   0  0  0  0  0  0  0  0  0  0  0  0
    0.6635   -7.0292    0.0000 O   0  0  0  0  0  0  0  0  0  0  0  0
   -0.0458   -6.6084    0.0000 C   0  0  0  0  0  0  0  0  0  0  0  0
   -0.0460   -7.4375    0.0000 C   0  0  0  0  0  0  0  0  0  0  0  0
    1.3766   -4.9565    0.0000 C   0  0  0  0  0  0  0  0  0  0  0  0
    1.3833   -4.1292    0.0000 C   0  0  0  0  0  0  0  0  0  0  0  0
    2.8152   -7.4405    0.0000 C   0  0  0  0  0  0  0  0  0  0  0  0
    3.6417   -5.7834    0.0000 C   0  0  0  0  0  0  0  0  0  0  0  0
   -0.0527   -5.7834    0.0000 C   0  0  0  0  0  0  0  0  0  0  0  0
   -0.0585   -4.9485    0.0000 C   0  0  0  0  0  0  0  0  0  0  0  0
   -0.8543   -4.6959    0.0000 N   0  0  0  0  0  0  0  0  0  0  0  0
   -1.3404   -5.3747    0.0000 C   0  0  0  0  0  0  0  0  0  0  0  0
   -0.8450   -6.0467    0.0000 O   0  0  0  0  0  0  0  0  0  0  0  0
   -2.1654   -5.3804    0.0000 O   0  0  0  0  0  0  0  0  0  0  0  0
   -0.4708   -6.4959    0.0000 C   0  0  0  0  0  0  0  0  0  0  0  0
   -1.2941   -3.9968    0.0000 C   0  0  0  0  0  0  0  0  0  0  0  0
   -0.9094   -3.2670    0.0000 C   0  0  0  0  0  0  0  0  0  0  0  0
   -1.3492   -2.5690    0.0000 C   0  0  0  0  0  0  0  0  0  0  0  0
   -0.9646   -1.8392    0.0000 C   0  0  0  0  0  0  0  0  0  0  0  0
   -1.4053   -1.1420    0.0000 N   0  0  0  0  0  0  0  0  0  0  0  0
   -0.9044   -0.4839    0.0000 C   0  0  0  0  0  0  0  0  0  0  0  0
   -1.3735    0.1948    0.0000 N   0  0  0  0  0  0  0  0  0  0  0  0
   -2.1834   -0.8662    0.0000 C   0  0  0  0  0  0  0  0  0  0  0  0
   -2.1635   -0.0424    0.0000 C   0  0  0  0  0  0  0  0  0  0  0  0
   -3.5885   -0.0105    0.0000 C   0  0  0  0  0  0  0  0  0  0  0  0
   -3.6045   -0.8375    0.0000 C   0  0  0  0  0  0  0  0  0  0  0  0
   -0.0667   -4.1208    0.0000 H   0  0  0  0  0  0  0  0  0  0  0  0
    8.5323   -5.8132    0.0000 C   0  0  0  0  0  0  0  0  0  0  0  0
    9.2486   -5.4039    0.0000 C   0  0  0  0  0  0  0  0  0  0  0  0
    7.8196   -5.3976    0.0000 O   0  0  0  0  0  0  0  0  0  0  0  0
    9.9560   -5.8229    0.0000 C   0  0  0  0  0  0  0  0  0  0  0  0
   10.6718   -5.4142    0.0000 C   0  0  0  0  0  0  0  0  0  0  0  0
   10.6759   -4.5883    0.0000 C   0  0  0  0  0  0  0  0  0  0  0  0
    9.9582   -4.1728    0.0000 C   0  0  0  0  0  0  0  0  0  0  0  0
    9.2454   -4.5839    0.0000 C   0  0  0  0  0  0  0  0  0  0  0  0
    6.3833   -6.2167    0.0000 H   0  0  0  0  0  0  0  0  0  0  0  0
    8.5208   -7.4583    0.0000 H   0  0  0  0  0  0  0  0  0  0  0  0
   -2.9015   -1.2611    0.0000 C   0  0  0  0  0  0  0  0  0  0  0  0
   -2.8658    0.3848    0.0000 N   0  0  0  0  0  0  0  0  0  0  0  0
 12 13  1  0
 13 14  1  0
  2  3  1  0
  4 10  1  0
  3  4  1  0
 13 18  1  0
 14 15  1  0
 15 16  1  0
 16 17  1  0
 17 18  1  0
 25 26  1  0
 26 27  1  0
 26 31  1  0
 27 28  1  0
 28 29  1  0
 29 30  1  0
 30 31  1  0
 28 32  1  1
 30 33  1  1
 33 34  1  0
 33 35  1  0
 31 36  1  6
 17 19  1  1
 26 37  1  6
 15 20  1  1
 15 21  1  0
  4  5  1  0
 21 22  1  0
 44 46  1  6
 46 47  1  0
 45 25  1  6
 45 48  1  0
 48 49  1  0
 49 50  1  0
 38 39  1  0
 50 51  1  0
 51 52  2  0
 51 54  1  0
 39 40  1  0
 61 53  1  0
 50 59  1  1
 48 60  1  1
 53 54  1  0
 39 41  1  6
 61 62  1  0
 53 55  1  1
 55 56  1  0
 40 42  1  0
 42 57  1  6
 62 63  1  0
 63 64  1  0
 64 65  1  0
 65 61  1  0
 64 66  2  0
 44 58  1  0
 61 67  1  6
 40 43  2  0
 49 12  1  1
 63 68  1  0
 42 62  1  0
 68 69  1  0
 69 70  1  0
 70 71  1  0
 71 72  1  0
 72 73  1  0
 38 44  1  0
 73 74  2  0
 74 76  1  0
 75 72  1  0
 44 45  1  0
 75 76  2  0
 76 91  1  0
 91 77  2  0
 77 78  1  0
 78 90  2  0
 90 75  1  0
 16 11  1  6
 62 79  1  1
 10 82  1  0
  2 11  1  0
  9 80  1  0
  5  6  1  0
 80 81  1  0
  6  7  1  6
 80 82  1  0
  1  2  1  0
 81 83  2  0
 83 84  1  0
 13 23  1  1
 84 85  2  0
  1  8  1  1
 85 86  1  0
  2 24  1  1
 86 87  2  0
 87 81  1  0
  1  6  1  0
  4 88  1  1
  5  9  1  0
  5 89  1  6
M  END

> <chembl_id>
CHEMBL1224607

> <chembl_pref_name>
None


$$$$

     RDKit          2D

 85 90  0  0  0  0  0  0  0  0999 V2000
    6.9313  -26.7858    0.0000 C   0  0  0  0  0  0  0  0  0  0  0  0
    7.3305  -27.5062    0.0000 C   0  0  0  0  0  0  0  0  0  0  0  0
    8.1546  -27.5162    0.0000 C   0  0  0  0  0  0  0  0  0  0  0  0
    7.3449  -26.0780    0.0000 C   0  0  0  0  0  0  0  0  0  0  0  0
    8.1677  -26.0844    0.0000 C   0  0  0  0  0  0  0  0  0  0  0  0
    8.5741  -26.8049    0.0000 C   0  0  0  0  0  0  0  0  0  0  0  0
    9.3967  -26.8133    0.0000 N   0  0  0  0  0  0  0  0  0  0  0  0
    9.8192  -26.1028    0.0000 C   0  0  0  0  0  0  0  0  0  0  0  0
    9.4129  -25.3822    0.0000 C   0  0  0  0  0  0  0  0  0  0  0  0
    8.5840  -25.3721    0.0000 C   0  0  0  0  0  0  0  0  0  0  0  0
    8.1778  -24.6541    0.0000 O   0  0  0  0  0  0  0  0  0  0  0  0
    9.8333  -24.6724    0.0000 C   0  0  0  0  0  0  0  0  0  0  0  0
   10.6583  -24.6816    0.0000 O   0  0  0  0  0  0  0  0  0  0  0  0
    9.4288  -23.9534    0.0000 O   0  0  0  0  0  0  0  0  0  0  0  0
   11.0628  -25.4006    0.0000 C   0  0  0  0  0  0  0  0  0  0  0  0
   11.8877  -25.4098    0.0000 C   0  0  0  0  0  0  0  0  0  0  0  0
    9.8009  -27.5325    0.0000 C   0  0  0  0  0  0  0  0  0  0  0  0
    9.3802  -28.2421    0.0000 C   0  0  0  0  0  0  0  0  0  0  0  0
   -4.4250  -18.1625    0.0000 C   0  0  0  0  0  0  0  0  0  0  0  0
   -3.6250  -17.9500    0.0000 C   0  0  0  0  0  0  0  0  0  0  0  0
   -4.2090  -17.3634    0.0000 O   0  0  0  0  0  0  0  0  0  0  0  0
   -2.2380  -16.3715    0.0000 C   0  0  0  0  0  0  0  0  0  0  0  0
   -2.9498  -16.8143    0.0000 C   0  0  0  0  0  0  0  0  0  0  0  0
   -1.5496  -16.8281    0.0000 C   0  0  0  0  0  0  0  0  0  0  0  0
   -2.8578  -17.6342    0.0000 C   0  0  0  0  0  0  0  0  0  0  0  0
   -1.6757  -17.6356    0.0000 C   0  0  0  0  0  0  0  0  0  0  0  0
   -0.9181  -17.9820    0.0000 C   0  0  0  0  0  0  0  0  0  0  0  0
   -3.6292  -18.7897    0.0000 C   0  0  0  0  0  0  0  0  0  0  0  0
   -0.9285  -18.8076    0.0000 C   0  0  0  0  0  0  0  0  0  0  0  0
   -2.8718  -19.1227    0.0000 O   0  0  0  0  0  0  0  0  0  0  0  0
   -1.6894  -19.1309    0.0000 C   0  0  0  0  0  0  0  0  0  0  0  0
   -2.9878  -19.9317    0.0000 C   0  0  0  0  0  0  0  0  0  0  0  0
   -1.5899  -19.9412    0.0000 C   0  0  0  0  0  0  0  0  0  0  0  0
   -2.2942  -20.3829    0.0000 C   0  0  0  0  0  0  0  0  0  0  0  0
   -2.2260  -15.5466    0.0000 O   0  0  0  0  0  0  0  0  0  0  0  0
   -3.6922  -16.4545    0.0000 C   0  0  0  0  0  0  0  0  0  0  0  0
   -3.4458  -17.0458    0.0000 O   0  0  0  0  0  0  0  0  0  0  0  0
   -4.3212  -19.2390    0.0000 C   0  0  0  0  0  0  0  0  0  0  0  0
   -5.0562  -18.8643    0.0000 C   0  0  0  0  0  0  0  0  0  0  0  0
   -3.7391  -20.2724    0.0000 O   0  0  0  0  0  0  0  0  0  0  0  0
   -2.3010  -21.2079    0.0000 C   0  0  0  0  0  0  0  0  0  0  0  0
   -0.8450  -20.2957    0.0000 O   0  0  0  0  0  0  0  0  0  0  0  0
   -2.2792  -18.5417    0.0000 C   0  0  0  0  0  0  0  0  0  0  0  0
   -0.2433  -19.2672    0.0000 O   0  0  0  0  0  0  0  0  0  0  0  0
   -0.2083  -18.3917    0.0000 C   0  0  0  0  0  0  0  0  0  0  0  0
   -0.7947  -16.4954    0.0000 C   0  0  0  0  0  0  0  0  0  0  0  0
   -0.4338  -21.0111    0.0000 C   0  0  0  0  0  0  0  0  0  0  0  0
   -0.8542  -21.7202    0.0000 C   0  0  0  0  0  0  0  0  0  0  0  0
   -0.4481  -22.4343    0.0000 C   0  0  0  0  0  0  0  0  0  0  0  0
    0.3772  -22.4419    0.0000 C   0  0  0  0  0  0  0  0  0  0  0  0
    0.7948  -21.7293    0.0000 C   0  0  0  0  0  0  0  0  0  0  0  0
    0.3871  -21.0090    0.0000 O   0  0  0  0  0  0  0  0  0  0  0  0
    1.6198  -21.7355    0.0000 C   0  0  0  0  0  0  0  0  0  0  0  0
   -1.2500  -22.6458    0.0000 C   0  0  0  0  0  0  0  0  0  0  0  0
   -0.2375  -23.2292    0.0000 O   0  0  0  0  0  0  0  0  0  0  0  0
   -0.8225  -23.8109    0.0000 C   0  0  0  0  0  0  0  0  0  0  0  0
    0.7841  -23.1596    0.0000 O   0  0  0  0  0  0  0  0  0  0  0  0
   -0.0292  -20.2917    0.0000 H   0  0  0  0  0  0  0  0  0  0  0  0
    1.6091  -23.1661    0.0000 C   0  0  0  0  0  0  0  0  0  0  0  0
    2.0159  -23.8838    0.0000 C   0  0  0  0  0  0  0  0  0  0  0  0
    2.0272  -22.4549    0.0000 O   0  0  0  0  0  0  0  0  0  0  0  0
    2.8409  -23.8903    0.0000 C   0  0  0  0  0  0  0  0  0  0  0  0
    3.2478  -24.6080    0.0000 N   0  0  0  0  0  0  0  0  0  0  0  0
    2.8278  -25.3143    0.0000 C   0  0  0  0  0  0  0  0  0  0  0  0
    3.2311  -26.0299    0.0000 C   0  0  0  0  0  0  0  0  0  0  0  0
    4.0564  -26.0406    0.0000 N   0  0  0  0  0  0  0  0  0  0  0  0
    4.4767  -25.3296    0.0000 C   0  0  0  0  0  0  0  0  0  0  0  0
    4.0717  -24.6078    0.0000 C   0  0  0  0  0  0  0  0  0  0  0  0
    4.4606  -26.7599    0.0000 C   0  0  0  0  0  0  0  0  0  0  0  0
    0.4972  -18.9037    0.0000 C   0  0  0  0  0  0  0  0  0  0  0  0
    1.1779  -19.3644    0.0000 O   0  0  0  0  0  0  0  0  0  0  0  0
    1.9161  -19.0042    0.0000 C   0  0  0  0  0  0  0  0  0  0  0  0
    1.9758  -18.1811    0.0000 C   0  0  0  0  0  0  0  0  0  0  0  0
    1.2910  -17.7193    0.0000 C   0  0  0  0  0  0  0  0  0  0  0  0
    0.5464  -18.0807    0.0000 C   0  0  0  0  0  0  0  0  0  0  0  0
    2.5995  -19.4664    0.0000 C   0  0  0  0  0  0  0  0  0  0  0  0
    1.3492  -16.8964    0.0000 N   0  0  0  0  0  0  0  0  0  0  0  0
    2.0910  -16.5353    0.0000 C   0  0  0  0  0  0  0  0  0  0  0  0
    0.6656  -16.4344    0.0000 C   0  0  0  0  0  0  0  0  0  0  0  0
   -0.1394  -17.6222    0.0000 O   0  0  0  0  0  0  0  0  0  0  0  0
   -0.9250  -17.1542    0.0000 O   0  0  0  0  0  0  0  0  0  0  0  0
   -0.1000  -17.1542    0.0000 C   0  0  0  0  0  0  0  0  0  0  0  0
    0.2792  -19.6958    0.0000 H   0  0  0  0  0  0  0  0  0  0  0  0
    5.2855  -26.7695    0.0000 C   0  0  0  0  0  0  0  0  0  0  0  0
    6.1104  -26.7791    0.0000 C   0  0  0  0  0  0  0  0  0  0  0  0
 33 42  1  6
  8  9  2  0
 31 43  1  6
  9 10  1  0
 29 44  1  6
  5  6  1  0
 27 45  1  6
 10 11  2  0
 24 46  1  6
 42 47  1  0
 47 48  1  0
  9 12  1  0
  2  3  1  0
 12 13  1  0
  3  6  2  0
 12 14  2  0
 47 52  1  0
 48 49  1  0
 49 50  1  0
 50 51  1  0
 51 52  1  0
  1  2  2  0
 51 53  1  1
 13 15  1  0
 49 54  1  1
  5  4  2  0
 49 55  1  0
 15 16  1  0
 55 56  1  0
 22 23  1  0
 50 57  1  6
 22 24  1  0
 47 58  1  1
 23 25  1  0
 57 59  1  0
 24 26  1  0
 59 60  1  0
 25 20  1  0
 59 61  2  0
 26 27  1  0
 60 62  1  0
 20 28  1  0
 62 63  1  0
 63 64  1  0
 27 29  1  0
 28 30  1  0
 29 31  1  0
 30 32  1  0
 31 33  1  0
 63 68  1  0
 64 65  1  0
 65 66  1  0
 66 67  1  0
 67 68  1  0
 32 34  1  0
 66 69  1  0
 33 34  1  0
 44 70  1  0
 70 71  1  0
  4  1  1  0
 22 35  2  0
  7 17  1  0
 23 36  1  1
  5 10  1  0
 70 75  1  0
 71 72  1  0
 72 73  1  0
 73 74  1  0
 74 75  1  0
 25 37  1  1
 72 76  1  1
 17 18  1  0
 74 77  1  1
 28 38  1  6
 77 78  1  0
 20 19  1  0
 77 79  1  0
 38 39  1  0
 75 80  1  6
 20 21  1  1
 27 81  1  0
 32 40  2  0
 81 82  1  0
  6  7  1  0
 70 83  1  6
 34 41  1  1
 69 84  1  0
  7  8  1  0
 84 85  3  0
 85  1  1  0
M  END

> <chembl_id>
CHEMBL1927459

> <chembl_pref_name>
None


$$$$

     RDKit          2D

 86 92  0  0  0  0  0  0  0  0999 V2000
   18.0438  -25.7733    0.0000 C   0  0  0  0  0  0  0  0  0  0  0  0
   18.4430  -26.4937    0.0000 C   0  0  0  0  0  0  0  0  0  0  0  0
   19.2671  -26.5037    0.0000 C   0  0  0  0  0  0  0  0  0  0  0  0
   18.4574  -25.0655    0.0000 C   0  0  0  0  0  0  0  0  0  0  0  0
   19.2802  -25.0719    0.0000 C   0  0  0  0  0  0  0  0  0  0  0  0
   19.6866  -25.7924    0.0000 C   0  0  0  0  0  0  0  0  0  0  0  0
   20.5092  -25.8008    0.0000 N   0  0  0  0  0  0  0  0  0  0  0  0
   20.9317  -25.0903    0.0000 C   0  0  0  0  0  0  0  0  0  0  0  0
   20.5254  -24.3697    0.0000 C   0  0  0  0  0  0  0  0  0  0  0  0
   19.6965  -24.3596    0.0000 C   0  0  0  0  0  0  0  0  0  0  0  0
   19.2903  -23.6416    0.0000 O   0  0  0  0  0  0  0  0  0  0  0  0
   20.9458  -23.6599    0.0000 C   0  0  0  0  0  0  0  0  0  0  0  0
   21.7707  -23.6691    0.0000 O   0  0  0  0  0  0  0  0  0  0  0  0
   20.5413  -22.9409    0.0000 O   0  0  0  0  0  0  0  0  0  0  0  0
   22.1753  -24.3881    0.0000 C   0  0  0  0  0  0  0  0  0  0  0  0
   23.0002  -24.3973    0.0000 C   0  0  0  0  0  0  0  0  0  0  0  0
   20.9134  -26.5200    0.0000 C   0  0  0  0  0  0  0  0  0  0  0  0
    6.6875  -17.1500    0.0000 C   0  0  0  0  0  0  0  0  0  0  0  0
    7.4875  -16.9375    0.0000 C   0  0  0  0  0  0  0  0  0  0  0  0
    6.9035  -16.3509    0.0000 O   0  0  0  0  0  0  0  0  0  0  0  0
    8.8745  -15.3590    0.0000 C   0  0  0  0  0  0  0  0  0  0  0  0
    8.1627  -15.8018    0.0000 C   0  0  0  0  0  0  0  0  0  0  0  0
    9.5629  -15.8156    0.0000 C   0  0  0  0  0  0  0  0  0  0  0  0
    8.2547  -16.6217    0.0000 C   0  0  0  0  0  0  0  0  0  0  0  0
    9.4368  -16.6231    0.0000 C   0  0  0  0  0  0  0  0  0  0  0  0
   10.1944  -16.9695    0.0000 C   0  0  0  0  0  0  0  0  0  0  0  0
    7.4833  -17.7772    0.0000 C   0  0  0  0  0  0  0  0  0  0  0  0
   10.1840  -17.7951    0.0000 C   0  0  0  0  0  0  0  0  0  0  0  0
    8.2407  -18.1102    0.0000 O   0  0  0  0  0  0  0  0  0  0  0  0
    9.4231  -18.1184    0.0000 C   0  0  0  0  0  0  0  0  0  0  0  0
    8.1247  -18.9192    0.0000 C   0  0  0  0  0  0  0  0  0  0  0  0
    9.5226  -18.9287    0.0000 C   0  0  0  0  0  0  0  0  0  0  0  0
    8.8183  -19.3704    0.0000 C   0  0  0  0  0  0  0  0  0  0  0  0
    8.8865  -14.5341    0.0000 O   0  0  0  0  0  0  0  0  0  0  0  0
    7.4203  -15.4420    0.0000 C   0  0  0  0  0  0  0  0  0  0  0  0
    7.6667  -16.0333    0.0000 O   0  0  0  0  0  0  0  0  0  0  0  0
    6.7913  -18.2265    0.0000 C   0  0  0  0  0  0  0  0  0  0  0  0
    6.0563  -17.8518    0.0000 C   0  0  0  0  0  0  0  0  0  0  0  0
    7.3734  -19.2599    0.0000 O   0  0  0  0  0  0  0  0  0  0  0  0
    8.8115  -20.1954    0.0000 C   0  0  0  0  0  0  0  0  0  0  0  0
   10.2675  -19.2832    0.0000 O   0  0  0  0  0  0  0  0  0  0  0  0
    8.8333  -17.5292    0.0000 C   0  0  0  0  0  0  0  0  0  0  0  0
   10.8692  -18.2547    0.0000 O   0  0  0  0  0  0  0  0  0  0  0  0
   10.9042  -17.3792    0.0000 C   0  0  0  0  0  0  0  0  0  0  0  0
   10.3178  -15.4829    0.0000 C   0  0  0  0  0  0  0  0  0  0  0  0
   10.6787  -19.9986    0.0000 C   0  0  0  0  0  0  0  0  0  0  0  0
   10.2583  -20.7077    0.0000 C   0  0  0  0  0  0  0  0  0  0  0  0
   10.6644  -21.4218    0.0000 C   0  0  0  0  0  0  0  0  0  0  0  0
   11.4897  -21.4294    0.0000 C   0  0  0  0  0  0  0  0  0  0  0  0
   11.9073  -20.7168    0.0000 C   0  0  0  0  0  0  0  0  0  0  0  0
   11.4996  -19.9965    0.0000 O   0  0  0  0  0  0  0  0  0  0  0  0
   12.7323  -20.7230    0.0000 C   0  0  0  0  0  0  0  0  0  0  0  0
    9.8625  -21.6333    0.0000 C   0  0  0  0  0  0  0  0  0  0  0  0
   10.8750  -22.2167    0.0000 O   0  0  0  0  0  0  0  0  0  0  0  0
   10.2900  -22.7984    0.0000 C   0  0  0  0  0  0  0  0  0  0  0  0
   11.8966  -22.1471    0.0000 O   0  0  0  0  0  0  0  0  0  0  0  0
   11.0833  -19.2792    0.0000 H   0  0  0  0  0  0  0  0  0  0  0  0
   12.7216  -22.1536    0.0000 C   0  0  0  0  0  0  0  0  0  0  0  0
   13.1284  -22.8713    0.0000 C   0  0  0  0  0  0  0  0  0  0  0  0
   13.1397  -21.4424    0.0000 O   0  0  0  0  0  0  0  0  0  0  0  0
   13.9534  -22.8778    0.0000 C   0  0  0  0  0  0  0  0  0  0  0  0
   14.3603  -23.5955    0.0000 N   0  0  0  0  0  0  0  0  0  0  0  0
   13.9403  -24.3018    0.0000 C   0  0  0  0  0  0  0  0  0  0  0  0
   14.3436  -25.0174    0.0000 C   0  0  0  0  0  0  0  0  0  0  0  0
   15.1689  -25.0281    0.0000 N   0  0  0  0  0  0  0  0  0  0  0  0
   15.5892  -24.3171    0.0000 C   0  0  0  0  0  0  0  0  0  0  0  0
   15.1842  -23.5953    0.0000 C   0  0  0  0  0  0  0  0  0  0  0  0
   15.5731  -25.7474    0.0000 C   0  0  0  0  0  0  0  0  0  0  0  0
   11.6097  -17.8912    0.0000 C   0  0  0  0  0  0  0  0  0  0  0  0
   12.2904  -18.3519    0.0000 O   0  0  0  0  0  0  0  0  0  0  0  0
   13.0286  -17.9917    0.0000 C   0  0  0  0  0  0  0  0  0  0  0  0
   13.0883  -17.1686    0.0000 C   0  0  0  0  0  0  0  0  0  0  0  0
   12.4035  -16.7068    0.0000 C   0  0  0  0  0  0  0  0  0  0  0  0
   11.6589  -17.0682    0.0000 C   0  0  0  0  0  0  0  0  0  0  0  0
   13.7120  -18.4539    0.0000 C   0  0  0  0  0  0  0  0  0  0  0  0
   12.4617  -15.8839    0.0000 N   0  0  0  0  0  0  0  0  0  0  0  0
   13.2035  -15.5228    0.0000 C   0  0  0  0  0  0  0  0  0  0  0  0
   11.7781  -15.4219    0.0000 C   0  0  0  0  0  0  0  0  0  0  0  0
   10.9731  -16.6097    0.0000 O   0  0  0  0  0  0  0  0  0  0  0  0
   10.1875  -16.1417    0.0000 O   0  0  0  0  0  0  0  0  0  0  0  0
   11.0125  -16.1417    0.0000 C   0  0  0  0  0  0  0  0  0  0  0  0
   11.3917  -18.6833    0.0000 H   0  0  0  0  0  0  0  0  0  0  0  0
   16.3980  -25.7570    0.0000 C   0  0  0  0  0  0  0  0  0  0  0  0
   17.2229  -25.7666    0.0000 C   0  0  0  0  0  0  0  0  0  0  0  0
   20.9075  -27.3439    0.0000 C   0  0  0  0  0  0  0  0  0  0  0  0
   21.6267  -26.9397    0.0000 C   0  0  0  0  0  0  0  0  0  0  0  0
  9 10  1  0
 28 43  1  6
  5  6  1  0
 26 44  1  6
 10 11  2  0
 23 45  1  6
 41 46  1  0
 46 47  1  0
  9 12  1  0
  2  3  1  0
 12 13  1  0
  3  6  2  0
 12 14  2  0
 46 51  1  0
 47 48  1  0
 48 49  1  0
 49 50  1  0
 50 51  1  0
  1  2  2  0
 50 52  1  1
 13 15  1  0
 48 53  1  1
  5  4  2  0
 48 54  1  0
 21 22  1  0
 54 55  1  0
 21 23  1  0
 49 56  1  6
 22 24  1  0
 46 57  1  1
 23 25  1  0
 56 58  1  0
 24 19  1  0
 58 59  1  0
 25 26  1  0
 58 60  2  0
 19 27  1  0
 59 61  1  0
 26 28  1  0
 61 62  1  0
 62 63  1  0
 27 29  1  0
 28 30  1  0
 29 31  1  0
 30 32  1  0
 31 33  1  0
 62 67  1  0
 63 64  1  0
 64 65  1  0
 65 66  1  0
 66 67  1  0
 32 33  1  0
 65 68  1  0
 15 16  1  0
 43 69  1  0
 69 70  1  0
 21 34  2  0
  4  1  1  0
 22 35  1  1
  7 17  1  0
 24 36  1  1
 69 74  1  0
 70 71  1  0
 71 72  1  0
 72 73  1  0
 73 74  1  0
 19 18  1  0
 71 75  1  1
 27 37  1  6
 73 76  1  1
 19 20  1  1
 76 77  1  0
 37 38  1  0
 76 78  1  0
  5 10  1  0
 74 79  1  6
 31 39  2  0
 26 80  1  0
  6  7  1  0
 80 81  1  0
 33 40  1  1
 69 82  1  6
  7  8  1  0
 68 83  1  0
 32 41  1  6
 83 84  3  0
 84  1  1  0
 85 17  1  0
 86 85  1  0
 17 86  1  0
  8  9  2  0
 30 42  1  6
M  END

> <chembl_id>
CHEMBL1927460

> <chembl_pref_name>
None


$$$$

     RDKit          2D

 85 90  0  0  0  0  0  0  0  0999 V2000
    6.7521   -9.0108    0.0000 C   0  0  0  0  0  0  0  0  0  0  0  0
    7.1513   -9.7312    0.0000 C   0  0  0  0  0  0  0  0  0  0  0  0
    7.9755   -9.7412    0.0000 C   0  0  0  0  0  0  0  0  0  0  0  0
    7.1657   -8.3030    0.0000 C   0  0  0  0  0  0  0  0  0  0  0  0
    7.9886   -8.3094    0.0000 C   0  0  0  0  0  0  0  0  0  0  0  0
    8.3949   -9.0299    0.0000 C   0  0  0  0  0  0  0  0  0  0  0  0
    9.2175   -9.0383    0.0000 N   0  0  0  0  0  0  0  0  0  0  0  0
    9.6400   -8.3278    0.0000 C   0  0  0  0  0  0  0  0  0  0  0  0
    9.2337   -7.6072    0.0000 C   0  0  0  0  0  0  0  0  0  0  0  0
    8.4048   -7.5971    0.0000 C   0  0  0  0  0  0  0  0  0  0  0  0
    7.9986   -6.8791    0.0000 O   0  0  0  0  0  0  0  0  0  0  0  0
    9.6541   -6.8974    0.0000 C   0  0  0  0  0  0  0  0  0  0  0  0
   10.4791   -6.9066    0.0000 O   0  0  0  0  0  0  0  0  0  0  0  0
    9.2496   -6.1784    0.0000 O   0  0  0  0  0  0  0  0  0  0  0  0
   10.8836   -7.6256    0.0000 C   0  0  0  0  0  0  0  0  0  0  0  0
   11.7085   -7.6348    0.0000 C   0  0  0  0  0  0  0  0  0  0  0  0
    9.6218   -9.7575    0.0000 C   0  0  0  0  0  0  0  0  0  0  0  0
    9.2010  -10.4671    0.0000 C   0  0  0  0  0  0  0  0  0  0  0  0
   -4.1875    0.3250    0.0000 C   0  0  0  0  0  0  0  0  0  0  0  0
   -3.3875    0.5375    0.0000 C   0  0  0  0  0  0  0  0  0  0  0  0
   -3.9715    1.1241    0.0000 O   0  0  0  0  0  0  0  0  0  0  0  0
   -2.0005    2.1160    0.0000 C   0  0  0  0  0  0  0  0  0  0  0  0
   -2.7123    1.6732    0.0000 C   0  0  0  0  0  0  0  0  0  0  0  0
   -1.3121    1.6594    0.0000 C   0  0  0  0  0  0  0  0  0  0  0  0
   -2.6203    0.8533    0.0000 C   0  0  0  0  0  0  0  0  0  0  0  0
   -1.4382    0.8519    0.0000 C   0  0  0  0  0  0  0  0  0  0  0  0
   -0.6806    0.5055    0.0000 C   0  0  0  0  0  0  0  0  0  0  0  0
   -3.3917   -0.3022    0.0000 C   0  0  0  0  0  0  0  0  0  0  0  0
   -0.6910   -0.3201    0.0000 C   0  0  0  0  0  0  0  0  0  0  0  0
   -2.6343   -0.6352    0.0000 O   0  0  0  0  0  0  0  0  0  0  0  0
   -1.4519   -0.6434    0.0000 C   0  0  0  0  0  0  0  0  0  0  0  0
   -2.7503   -1.4442    0.0000 C   0  0  0  0  0  0  0  0  0  0  0  0
   -1.3524   -1.4537    0.0000 C   0  0  0  0  0  0  0  0  0  0  0  0
   -2.0567   -1.8954    0.0000 C   0  0  0  0  0  0  0  0  0  0  0  0
   -1.9885    2.9409    0.0000 O   0  0  0  0  0  0  0  0  0  0  0  0
   -3.4547    2.0330    0.0000 C   0  0  0  0  0  0  0  0  0  0  0  0
   -3.2083    1.4417    0.0000 O   0  0  0  0  0  0  0  0  0  0  0  0
   -4.0837   -0.7515    0.0000 C   0  0  0  0  0  0  0  0  0  0  0  0
   -4.8187   -0.3768    0.0000 C   0  0  0  0  0  0  0  0  0  0  0  0
   -3.5016   -1.7849    0.0000 O   0  0  0  0  0  0  0  0  0  0  0  0
   -2.0635   -2.7204    0.0000 C   0  0  0  0  0  0  0  0  0  0  0  0
   -0.6075   -1.8082    0.0000 O   0  0  0  0  0  0  0  0  0  0  0  0
   -2.0417   -0.0542    0.0000 C   0  0  0  0  0  0  0  0  0  0  0  0
   -0.0058   -0.7797    0.0000 O   0  0  0  0  0  0  0  0  0  0  0  0
    0.0292    0.0958    0.0000 C   0  0  0  0  0  0  0  0  0  0  0  0
   -0.5572    1.9921    0.0000 C   0  0  0  0  0  0  0  0  0  0  0  0
   -0.1963   -2.5236    0.0000 C   0  0  0  0  0  0  0  0  0  0  0  0
   -0.6167   -3.2327    0.0000 C   0  0  0  0  0  0  0  0  0  0  0  0
   -0.2106   -3.9468    0.0000 C   0  0  0  0  0  0  0  0  0  0  0  0
    0.6147   -3.9544    0.0000 C   0  0  0  0  0  0  0  0  0  0  0  0
    1.0323   -3.2418    0.0000 C   0  0  0  0  0  0  0  0  0  0  0  0
    0.6246   -2.5215    0.0000 O   0  0  0  0  0  0  0  0  0  0  0  0
    1.8573   -3.2480    0.0000 C   0  0  0  0  0  0  0  0  0  0  0  0
   -1.0125   -4.1583    0.0000 C   0  0  0  0  0  0  0  0  0  0  0  0
    0.0000   -4.7417    0.0000 O   0  0  0  0  0  0  0  0  0  0  0  0
   -0.5850   -5.3234    0.0000 C   0  0  0  0  0  0  0  0  0  0  0  0
    1.0216   -4.6721    0.0000 O   0  0  0  0  0  0  0  0  0  0  0  0
    0.2083   -1.8042    0.0000 H   0  0  0  0  0  0  0  0  0  0  0  0
    1.8466   -4.6786    0.0000 C   0  0  0  0  0  0  0  0  0  0  0  0
    2.2534   -5.3963    0.0000 C   0  0  0  0  0  0  0  0  0  0  0  0
    2.2647   -3.9674    0.0000 O   0  0  0  0  0  0  0  0  0  0  0  0
    3.0784   -5.4028    0.0000 C   0  0  0  0  0  0  0  0  0  0  0  0
    3.4853   -6.1205    0.0000 N   0  0  0  0  0  0  0  0  0  0  0  0
    3.0653   -6.8268    0.0000 C   0  0  0  0  0  0  0  0  0  0  0  0
    3.4686   -7.5424    0.0000 C   0  0  0  0  0  0  0  0  0  0  0  0
    4.2939   -7.5531    0.0000 N   0  0  0  0  0  0  0  0  0  0  0  0
    4.7142   -6.8421    0.0000 C   0  0  0  0  0  0  0  0  0  0  0  0
    4.3092   -6.1203    0.0000 C   0  0  0  0  0  0  0  0  0  0  0  0
    4.6981   -8.2724    0.0000 C   0  0  0  0  0  0  0  0  0  0  0  0
    0.7347   -0.4162    0.0000 C   0  0  0  0  0  0  0  0  0  0  0  0
    1.4154   -0.8769    0.0000 O   0  0  0  0  0  0  0  0  0  0  0  0
    2.1536   -0.5167    0.0000 C   0  0  0  0  0  0  0  0  0  0  0  0
    2.2133    0.3064    0.0000 C   0  0  0  0  0  0  0  0  0  0  0  0
    1.5285    0.7682    0.0000 C   0  0  0  0  0  0  0  0  0  0  0  0
    0.7839    0.4068    0.0000 C   0  0  0  0  0  0  0  0  0  0  0  0
    2.8370   -0.9789    0.0000 C   0  0  0  0  0  0  0  0  0  0  0  0
    1.5867    1.5911    0.0000 N   0  0  0  0  0  0  0  0  0  0  0  0
    2.3285    1.9522    0.0000 C   0  0  0  0  0  0  0  0  0  0  0  0
    0.9031    2.0531    0.0000 C   0  0  0  0  0  0  0  0  0  0  0  0
    0.0981    0.8653    0.0000 O   0  0  0  0  0  0  0  0  0  0  0  0
   -0.6875    1.3333    0.0000 O   0  0  0  0  0  0  0  0  0  0  0  0
    0.1375    1.3333    0.0000 C   0  0  0  0  0  0  0  0  0  0  0  0
    0.5167   -1.2083    0.0000 H   0  0  0  0  0  0  0  0  0  0  0  0
    5.5230   -8.2820    0.0000 C   0  0  0  0  0  0  0  0  0  0  0  0
    5.9271   -9.0012    0.0000 C   0  0  0  0  0  0  0  0  0  0  0  0
 33 42  1  6
  8  9  2  0
 31 43  1  6
  9 10  1  0
 29 44  1  6
  5  6  1  0
 27 45  1  6
 10 11  2  0
 24 46  1  6
 42 47  1  0
 47 48  1  0
  9 12  1  0
  2  3  1  0
 12 13  1  0
  3  6  2  0
 12 14  2  0
 47 52  1  0
 48 49  1  0
 49 50  1  0
 50 51  1  0
 51 52  1  0
  1  2  2  0
 51 53  1  1
 13 15  1  0
 49 54  1  1
  5  4  2  0
 49 55  1  0
 15 16  1  0
 55 56  1  0
 22 23  1  0
 50 57  1  6
 22 24  1  0
 47 58  1  1
 23 25  1  0
 57 59  1  0
 24 26  1  0
 59 60  1  0
 25 20  1  0
 59 61  2  0
 26 27  1  0
 60 62  1  0
 20 28  1  0
 62 63  1  0
 63 64  1  0
 27 29  1  0
 28 30  1  0
 29 31  1  0
 30 32  1  0
 31 33  1  0
 63 68  1  0
 64 65  1  0
 65 66  1  0
 66 67  1  0
 67 68  1  0
 32 34  1  0
 66 69  1  0
 33 34  1  0
 44 70  1  0
 70 71  1  0
  4  1  1  0
 22 35  2  0
  7 17  1  0
 23 36  1  1
  5 10  1  0
 70 75  1  0
 71 72  1  0
 72 73  1  0
 73 74  1  0
 74 75  1  0
 25 37  1  1
 72 76  1  1
 17 18  1  0
 74 77  1  1
 28 38  1  6
 77 78  1  0
 20 19  1  0
 77 79  1  0
 38 39  1  0
 75 80  1  6
 20 21  1  1
 27 81  1  0
 32 40  2  0
 81 82  1  0
  6  7  1  0
 70 83  1  6
 34 41  1  1
 69 84  1  0
  7  8  1  0
 84 85  1  0
 85  1  1  0
M  END

> <chembl_id>
CHEMBL1927461

> <chembl_pref_name>
None


$$$$

     RDKit          2D

 86 92  0  0  0  0  0  0  0  0999 V2000
   19.1854   -8.4775    0.0000 C   0  0  0  0  0  0  0  0  0  0  0  0
   19.5846   -9.1979    0.0000 C   0  0  0  0  0  0  0  0  0  0  0  0
   20.4088   -9.2078    0.0000 C   0  0  0  0  0  0  0  0  0  0  0  0
   19.5990   -7.7696    0.0000 C   0  0  0  0  0  0  0  0  0  0  0  0
   20.4219   -7.7760    0.0000 C   0  0  0  0  0  0  0  0  0  0  0  0
   20.8282   -8.4966    0.0000 C   0  0  0  0  0  0  0  0  0  0  0  0
   21.6508   -8.5049    0.0000 N   0  0  0  0  0  0  0  0  0  0  0  0
   22.0734   -7.7945    0.0000 C   0  0  0  0  0  0  0  0  0  0  0  0
   21.6670   -7.0739    0.0000 C   0  0  0  0  0  0  0  0  0  0  0  0
   20.8382   -7.0638    0.0000 C   0  0  0  0  0  0  0  0  0  0  0  0
   20.4319   -6.3458    0.0000 O   0  0  0  0  0  0  0  0  0  0  0  0
   22.0875   -6.3641    0.0000 C   0  0  0  0  0  0  0  0  0  0  0  0
   22.9124   -6.3733    0.0000 O   0  0  0  0  0  0  0  0  0  0  0  0
   21.6830   -5.6450    0.0000 O   0  0  0  0  0  0  0  0  0  0  0  0
   23.3169   -7.0923    0.0000 C   0  0  0  0  0  0  0  0  0  0  0  0
   24.1419   -7.1015    0.0000 C   0  0  0  0  0  0  0  0  0  0  0  0
   22.0551   -9.2241    0.0000 C   0  0  0  0  0  0  0  0  0  0  0  0
    8.2458    0.8583    0.0000 C   0  0  0  0  0  0  0  0  0  0  0  0
    9.0458    1.0708    0.0000 C   0  0  0  0  0  0  0  0  0  0  0  0
    8.4618    1.6574    0.0000 O   0  0  0  0  0  0  0  0  0  0  0  0
   10.4328    2.6493    0.0000 C   0  0  0  0  0  0  0  0  0  0  0  0
    9.7210    2.2066    0.0000 C   0  0  0  0  0  0  0  0  0  0  0  0
   11.1212    2.1927    0.0000 C   0  0  0  0  0  0  0  0  0  0  0  0
    9.8130    1.3866    0.0000 C   0  0  0  0  0  0  0  0  0  0  0  0
   10.9951    1.3852    0.0000 C   0  0  0  0  0  0  0  0  0  0  0  0
   11.7527    1.0388    0.0000 C   0  0  0  0  0  0  0  0  0  0  0  0
    9.0416    0.2311    0.0000 C   0  0  0  0  0  0  0  0  0  0  0  0
   11.7424    0.2132    0.0000 C   0  0  0  0  0  0  0  0  0  0  0  0
    9.7991   -0.1019    0.0000 O   0  0  0  0  0  0  0  0  0  0  0  0
   10.9814   -0.1100    0.0000 C   0  0  0  0  0  0  0  0  0  0  0  0
    9.6830   -0.9108    0.0000 C   0  0  0  0  0  0  0  0  0  0  0  0
   11.0809   -0.9204    0.0000 C   0  0  0  0  0  0  0  0  0  0  0  0
   10.3767   -1.3621    0.0000 C   0  0  0  0  0  0  0  0  0  0  0  0
   10.4448    3.4742    0.0000 O   0  0  0  0  0  0  0  0  0  0  0  0
    8.9786    2.5664    0.0000 C   0  0  0  0  0  0  0  0  0  0  0  0
    9.2250    1.9750    0.0000 O   0  0  0  0  0  0  0  0  0  0  0  0
    8.3496   -0.2181    0.0000 C   0  0  0  0  0  0  0  0  0  0  0  0
    7.6146    0.1565    0.0000 C   0  0  0  0  0  0  0  0  0  0  0  0
    8.9317   -1.2516    0.0000 O   0  0  0  0  0  0  0  0  0  0  0  0
   10.3698   -2.1871    0.0000 C   0  0  0  0  0  0  0  0  0  0  0  0
   11.8259   -1.2749    0.0000 O   0  0  0  0  0  0  0  0  0  0  0  0
   10.3917    0.4792    0.0000 C   0  0  0  0  0  0  0  0  0  0  0  0
   12.4275   -0.2464    0.0000 O   0  0  0  0  0  0  0  0  0  0  0  0
   12.4625    0.6292    0.0000 C   0  0  0  0  0  0  0  0  0  0  0  0
   11.8762    2.5254    0.0000 C   0  0  0  0  0  0  0  0  0  0  0  0
   12.2371   -1.9903    0.0000 C   0  0  0  0  0  0  0  0  0  0  0  0
   11.8167   -2.6994    0.0000 C   0  0  0  0  0  0  0  0  0  0  0  0
   12.2227   -3.4134    0.0000 C   0  0  0  0  0  0  0  0  0  0  0  0
   13.0481   -3.4211    0.0000 C   0  0  0  0  0  0  0  0  0  0  0  0
   13.4657   -2.7085    0.0000 C   0  0  0  0  0  0  0  0  0  0  0  0
   13.0580   -1.9882    0.0000 O   0  0  0  0  0  0  0  0  0  0  0  0
   14.2907   -2.7146    0.0000 C   0  0  0  0  0  0  0  0  0  0  0  0
   11.4208   -3.6250    0.0000 C   0  0  0  0  0  0  0  0  0  0  0  0
   12.4333   -4.2083    0.0000 O   0  0  0  0  0  0  0  0  0  0  0  0
   11.8483   -4.7900    0.0000 C   0  0  0  0  0  0  0  0  0  0  0  0
   13.4549   -4.1388    0.0000 O   0  0  0  0  0  0  0  0  0  0  0  0
   12.6417   -1.2708    0.0000 H   0  0  0  0  0  0  0  0  0  0  0  0
   14.2799   -4.1453    0.0000 C   0  0  0  0  0  0  0  0  0  0  0  0
   14.6868   -4.8630    0.0000 C   0  0  0  0  0  0  0  0  0  0  0  0
   14.6980   -3.4341    0.0000 O   0  0  0  0  0  0  0  0  0  0  0  0
   15.5117   -4.8695    0.0000 C   0  0  0  0  0  0  0  0  0  0  0  0
   15.9186   -5.5871    0.0000 N   0  0  0  0  0  0  0  0  0  0  0  0
   15.4986   -6.2935    0.0000 C   0  0  0  0  0  0  0  0  0  0  0  0
   15.9020   -7.0090    0.0000 C   0  0  0  0  0  0  0  0  0  0  0  0
   16.7272   -7.0198    0.0000 N   0  0  0  0  0  0  0  0  0  0  0  0
   17.1476   -6.3088    0.0000 C   0  0  0  0  0  0  0  0  0  0  0  0
   16.7426   -5.5870    0.0000 C   0  0  0  0  0  0  0  0  0  0  0  0
   17.1314   -7.7390    0.0000 C   0  0  0  0  0  0  0  0  0  0  0  0
   13.1681    0.1172    0.0000 C   0  0  0  0  0  0  0  0  0  0  0  0
   13.8487   -0.3436    0.0000 O   0  0  0  0  0  0  0  0  0  0  0  0
   14.5869    0.0166    0.0000 C   0  0  0  0  0  0  0  0  0  0  0  0
   14.6466    0.8398    0.0000 C   0  0  0  0  0  0  0  0  0  0  0  0
   13.9618    1.3015    0.0000 C   0  0  0  0  0  0  0  0  0  0  0  0
   13.2173    0.9401    0.0000 C   0  0  0  0  0  0  0  0  0  0  0  0
   15.2703   -0.4456    0.0000 C   0  0  0  0  0  0  0  0  0  0  0  0
   14.0200    2.1245    0.0000 N   0  0  0  0  0  0  0  0  0  0  0  0
   14.7619    2.4855    0.0000 C   0  0  0  0  0  0  0  0  0  0  0  0
   13.3365    2.5864    0.0000 C   0  0  0  0  0  0  0  0  0  0  0  0
   12.5314    1.3986    0.0000 O   0  0  0  0  0  0  0  0  0  0  0  0
   11.7458    1.8667    0.0000 O   0  0  0  0  0  0  0  0  0  0  0  0
   12.5708    1.8667    0.0000 C   0  0  0  0  0  0  0  0  0  0  0  0
   12.9500   -0.6750    0.0000 H   0  0  0  0  0  0  0  0  0  0  0  0
   17.9563   -7.7486    0.0000 C   0  0  0  0  0  0  0  0  0  0  0  0
   18.3605   -8.4679    0.0000 C   0  0  0  0  0  0  0  0  0  0  0  0
   22.0492  -10.0481    0.0000 C   0  0  0  0  0  0  0  0  0  0  0  0
   22.7684   -9.6439    0.0000 C   0  0  0  0  0  0  0  0  0  0  0  0
  9 10  1  0
 28 43  1  6
  5  6  1  0
 26 44  1  6
 10 11  2  0
 23 45  1  6
 41 46  1  0
 46 47  1  0
  9 12  1  0
  2  3  1  0
 12 13  1  0
  3  6  2  0
 12 14  2  0
 46 51  1  0
 47 48  1  0
 48 49  1  0
 49 50  1  0
 50 51  1  0
  1  2  2  0
 50 52  1  1
 13 15  1  0
 48 53  1  1
  5  4  2  0
 48 54  1  0
 21 22  1  0
 54 55  1  0
 21 23  1  0
 49 56  1  6
 22 24  1  0
 46 57  1  1
 23 25  1  0
 56 58  1  0
 24 19  1  0
 58 59  1  0
 25 26  1  0
 58 60  2  0
 19 27  1  0
 59 61  1  0
 26 28  1  0
 61 62  1  0
 62 63  1  0
 27 29  1  0
 28 30  1  0
 29 31  1  0
 30 32  1  0
 31 33  1  0
 62 67  1  0
 63 64  1  0
 64 65  1  0
 65 66  1  0
 66 67  1  0
 32 33  1  0
 65 68  1  0
 15 16  1  0
 43 69  1  0
 69 70  1  0
 21 34  2  0
  4  1  1  0
 22 35  1  1
  7 17  1  0
 24 36  1  1
 69 74  1  0
 70 71  1  0
 71 72  1  0
 72 73  1  0
 73 74  1  0
 19 18  1  0
 71 75  1  1
 27 37  1  6
 73 76  1  1
 19 20  1  1
 76 77  1  0
 37 38  1  0
 76 78  1  0
  5 10  1  0
 74 79  1  6
 31 39  2  0
 26 80  1  0
  6  7  1  0
 80 81  1  0
 33 40  1  1
 69 82  1  6
  7  8  1  0
 68 83  1  0
 32 41  1  6
 83 84  1  0
 84  1  1  0
 85 17  1  0
 86 85  1  0
 17 86  1  0
  8  9  2  0
 30 42  1  6
M  END

> <chembl_id>
CHEMBL1927462

> <chembl_pref_name>
None


$$$$

     RDKit          2D

 61 66  0  0  0  0  0  0  0  0999 V2000
   12.4230  -10.0993    0.0000 C   0  0  0  0  0  0  0  0  0  0  0  0
   10.2974  -11.3004    0.0000 C   0  0  0  0  0  0  0  0  0  0  0  0
    8.8735  -11.3004    0.0000 C   0  0  0  0  0  0  0  0  0  0  0  0
    8.1678   -9.2656    0.0000 C   0  0  0  0  0  0  0  0  0  0  0  0
    9.5876  -11.7089    0.0000 C   0  0  0  0  0  0  0  0  0  0  0  0
   12.4518   -9.2821    0.0000 C   0  0  0  0  0  0  0  0  0  0  0  0
   10.9991  -10.0828    0.0000 C   0  0  0  0  0  0  0  0  0  0  0  0
   10.2851  -10.4832    0.0000 C   0  0  0  0  0  0  0  0  0  0  0  0
    8.8735   -8.0398    0.0000 C   0  0  0  0  0  0  0  0  0  0  0  0
    8.8735  -10.4832    0.0000 O   0  0  0  0  0  0  0  0  0  0  0  0
    8.8735   -8.8570    0.0000 C   0  0  0  0  0  0  0  0  0  0  0  0
    9.5793   -7.6354    0.0000 C   0  0  0  0  0  0  0  0  0  0  0  0
   11.7048  -10.4832    0.0000 O   0  0  0  0  0  0  0  0  0  0  0  0
   13.1700   -8.8983    0.0000 C   0  0  0  0  0  0  0  0  0  0  0  0
   10.9991   -9.2656    0.0000 C   0  0  0  0  0  0  0  0  0  0  0  0
   13.1205  -10.5409    0.0000 O   0  0  0  0  0  0  0  0  0  0  0  0
    8.1678  -10.0828    0.0000 C   0  0  0  0  0  0  0  0  0  0  0  0
   10.9908  -11.7089    0.0000 O   0  0  0  0  0  0  0  0  0  0  0  0
   10.2851   -8.0398    0.0000 C   0  0  0  0  0  0  0  0  0  0  0  0
   10.2851   -8.8570    0.0000 C   0  0  0  0  0  0  0  0  0  0  0  0
   13.8634   -9.3317    0.0000 C   0  0  0  0  0  0  0  0  0  0  0  0
   13.2030   -8.0811    0.0000 N   0  0  0  0  0  0  0  0  0  0  0  0
    8.1760  -11.7089    0.0000 O   0  0  0  0  0  0  0  0  0  0  0  0
   13.8386  -10.1489    0.0000 C   0  0  0  0  0  0  0  0  0  0  0  0
    9.5793   -6.8182    0.0000 O   0  0  0  0  0  0  0  0  0  0  0  0
    7.5817   -8.9148    0.0000 O   0  0  0  0  0  0  0  0  0  0  0  0
   11.7585   -8.8488    0.0000 O   0  0  0  0  0  0  0  0  0  0  0  0
   11.2137   -8.5888    0.0000 O   0  0  0  0  0  0  0  0  0  0  0  0
    8.4484   -8.0811    0.0000 N   0  0  0  0  0  0  0  0  0  0  0  0
    7.4496   -9.6660    0.0000 C   0  0  0  0  0  0  0  0  0  0  0  0
    9.5917  -12.5261    0.0000 C   0  0  0  0  0  0  0  0  0  0  0  0
    9.5793  -10.0746    0.0000 C   0  0  0  0  0  0  0  0  0  0  0  0
    8.8199   -6.9049    0.0000 C   0  0  0  0  0  0  0  0  0  0  0  0
   11.7048   -9.6742    0.0000 C   0  0  0  0  0  0  0  0  0  0  0  0
    7.4620  -10.4914    0.0000 C   0  0  0  0  0  0  0  0  0  0  0  0
   10.9991   -7.6354    0.0000 C   0  0  0  0  0  0  0  0  0  0  0  0
   12.5096   -7.6478    0.0000 C   0  0  0  0  0  0  0  0  0  0  0  0
   13.9253   -7.6973    0.0000 C   0  0  0  0  0  0  0  0  0  0  0  0
   14.5320  -10.5822    0.0000 C   0  0  0  0  0  0  0  0  0  0  0  0
    7.4620  -11.3004    0.0000 C   0  0  0  0  0  0  0  0  0  0  0  0
   12.3862  -11.0986    0.0000 H   0  0  0  0  0  0  0  0  0  0  0  0
    7.5639   -8.0613    0.0000 C   0  0  0  0  0  0  0  0  0  0  0  0
    6.8512   -7.6519    0.0000 O   0  0  0  0  0  0  0  0  0  0  0  0
    8.2173   -7.2227    0.0000 C   0  0  0  0  0  0  0  0  0  0  0  0
    8.6566   -6.4498    0.0000 C   0  0  0  0  0  0  0  0  0  0  0  0
    7.8862   -6.0062    0.0000 N   0  0  0  0  0  0  0  0  0  0  0  0
    7.4426   -6.7766    0.0000 C   0  0  0  0  0  0  0  0  0  0  0  0
    7.6551   -5.1477    0.0000 C   0  0  0  0  0  0  0  0  0  0  0  0
    6.7960   -4.9187    0.0000 C   0  0  0  0  0  0  0  0  0  0  0  0
   10.7102   -8.0852    0.0000 C   0  0  0  0  0  0  0  0  0  0  0  0
    8.2830   -4.5183    0.0000 C   0  0  0  0  0  0  0  0  0  0  0  0
    9.1391   -4.7493    0.0000 C   0  0  0  0  0  0  0  0  0  0  0  0
    9.7667   -4.1208    0.0000 C   0  0  0  0  0  0  0  0  0  0  0  0
    9.5358   -3.2613    0.0000 N   0  0  0  0  0  0  0  0  0  0  0  0
    8.0477   -3.6639    0.0000 C   0  0  0  0  0  0  0  0  0  0  0  0
    8.6722   -3.0375    0.0000 C   0  0  0  0  0  0  0  0  0  0  0  0
    8.4414   -2.1857    0.0000 N   0  0  0  0  0  0  0  0  0  0  0  0
    7.5867   -1.9592    0.0000 C   0  0  0  0  0  0  0  0  0  0  0  0
    6.9629   -2.5910    0.0000 C   0  0  0  0  0  0  0  0  0  0  0  0
    7.1969   -3.4404    0.0000 C   0  0  0  0  0  0  0  0  0  0  0  0
    8.6255   -7.8882    0.0000 H   0  0  0  0  0  0  0  0  0  0  0  0
  2  8  1  0
  3  5  1  0
  4 11  1  0
  5  2  1  0
  6  1  1  0
  7 13  1  6
  8  7  1  0
  9 12  1  0
 10  3  1  0
 11  9  1  0
 12 19  1  0
 13  1  1  0
 14  6  1  0
 15  7  1  0
 16  1  1  0
 17 10  1  0
  2 18  2  0
 19 20  1  0
 20 15  1  0
 21 24  1  0
 14 22  1  1
 23  3  2  0
 24 16  1  0
 25 12  2  0
  4 26  1  0
  6 27  1  6
 15 28  1  0
 11 29  1  0
  4 30  1  6
  5 31  1  1
  8 32  1  6
  9 33  1  1
 15 34  1  6
 17 35  1  6
 19 36  1  6
 37 22  1  0
 38 22  1  0
 24 39  1  1
 40 35  1  0
  1 41  1  6
 21 14  1  0
  4 17  1  0
 29 42  1  0
 26 42  1  0
 42 43  2  0
 29 44  1  0
 44 45  1  0
 45 46  1  0
 46 47  1  0
 47 44  1  0
 46 48  1  0
 48 49  1  6
 28 50  1  0
 48 51  1  0
 51 52  2  0
 52 53  1  0
 53 54  2  0
 54 56  1  0
 55 51  1  0
 55 56  1  0
 56 57  2  0
 57 58  1  0
 58 59  2  0
 59 60  1  0
 60 55  2  0
 11 61  1  1
M  END

> <chembl_id>
CHEMBL3526413

> <chembl_pref_name>
None


$$$$

     RDKit          2D

 67 72  0  0  0  0  0  0  0  0999 V2000
   15.8832   -7.8624    0.0000 C   0  0  0  0  0  0  0  0  0  0  0  0
   15.8832   -7.0374    0.0000 C   0  0  0  0  0  0  0  0  0  0  0  0
   14.6082   -7.4416    0.0000 C   0  0  0  0  0  0  0  0  0  0  0  0
   15.0956   -8.1041    0.0000 O   0  0  0  0  0  0  0  0  0  0  0  0
   15.0956   -6.7666    0.0000 O   0  0  0  0  0  0  0  0  0  0  0  0
   20.1831   -7.0374    0.0000 C   0  0  0  0  0  0  0  0  0  0  0  0
   16.5915   -6.6166    0.0000 C   0  0  0  0  0  0  0  0  0  0  0  0
   17.3165   -9.4915    0.0000 C   0  0  0  0  0  0  0  0  0  0  0  0
   18.0207   -8.2416    0.0000 C   0  0  0  0  0  0  0  0  0  0  0  0
   18.0290   -9.0665    0.0000 C   0  0  0  0  0  0  0  0  0  0  0  0
   20.9081   -6.6041    0.0000 C   0  0  0  0  0  0  0  0  0  0  0  0
   18.7331   -7.0374    0.0000 C   0  0  0  0  0  0  0  0  0  0  0  0
   18.7331   -7.8624    0.0000 C   0  0  0  0  0  0  0  0  0  0  0  0
   16.5915   -5.7916    0.0000 C   0  0  0  0  0  0  0  0  0  0  0  0
   16.6081   -9.0790    0.0000 O   0  0  0  0  0  0  0  0  0  0  0  0
   19.4582   -6.6249    0.0000 O   0  0  0  0  0  0  0  0  0  0  0  0
   21.6331   -7.0291    0.0000 C   0  0  0  0  0  0  0  0  0  0  0  0
   18.0290   -6.6166    0.0000 C   0  0  0  0  0  0  0  0  0  0  0  0
   16.5915   -8.2666    0.0000 C   0  0  0  0  0  0  0  0  0  0  0  0
   20.1956   -7.8666    0.0000 O   0  0  0  0  0  0  0  0  0  0  0  0
   17.3040   -5.3666    0.0000 C   0  0  0  0  0  0  0  0  0  0  0  0
   18.0290   -5.7916    0.0000 C   0  0  0  0  0  0  0  0  0  0  0  0
   21.6331   -7.8624    0.0000 C   0  0  0  0  0  0  0  0  0  0  0  0
   13.7790   -7.4416    0.0000 O   0  0  0  0  0  0  0  0  0  0  0  0
   22.3539   -6.6041    0.0000 N   0  0  0  0  0  0  0  0  0  0  0  0
   17.3289  -10.3249    0.0000 O   0  0  0  0  0  0  0  0  0  0  0  0
   20.9081   -8.2791    0.0000 C   0  0  0  0  0  0  0  0  0  0  0  0
   15.8706   -5.3666    0.0000 N   0  0  0  0  0  0  0  0  0  0  0  0
   20.8957   -5.7791    0.0000 O   0  0  0  0  0  0  0  0  0  0  0  0
   15.4581   -8.5749    0.0000 C   0  0  0  0  0  0  0  0  0  0  0  0
   17.2290   -6.9875    0.0000 C   0  0  0  0  0  0  0  0  0  0  0  0
   19.4331   -8.2875    0.0000 C   0  0  0  0  0  0  0  0  0  0  0  0
   17.3040   -6.2041    0.0000 C   0  0  0  0  0  0  0  0  0  0  0  0
   15.8706   -8.6791    0.0000 C   0  0  0  0  0  0  0  0  0  0  0  0
   17.3040   -4.5416    0.0000 C   0  0  0  0  0  0  0  0  0  0  0  0
   22.3539   -5.7791    0.0000 C   0  0  0  0  0  0  0  0  0  0  0  0
   23.0706   -7.0291    0.0000 C   0  0  0  0  0  0  0  0  0  0  0  0
   20.9081   -9.1041    0.0000 C   0  0  0  0  0  0  0  0  0  0  0  0
   15.8581   -9.5041    0.0000 C   0  0  0  0  0  0  0  0  0  0  0  0
   15.8832   -6.1999    0.0000 H   0  0  0  0  0  0  0  0  0  0  0  0
   19.5706   -7.5874    0.0000 H   0  0  0  0  0  0  0  0  0  0  0  0
   15.8782   -4.5416    0.0000 O   0  0  0  0  0  0  0  0  0  0  0  0
   18.0294   -9.8451    0.0000 C   0  0  0  0  0  0  0  0  0  0  0  0
   18.6123   -6.0291    0.0000 O   0  0  0  0  0  0  0  0  0  0  0  0
   18.3959   -5.2330    0.0000 C   0  0  0  0  0  0  0  0  0  0  0  0
   18.9772   -4.6475    0.0000 C   0  0  0  0  0  0  0  0  0  0  0  0
   18.7609   -3.8514    0.0000 C   0  0  0  0  0  0  0  0  0  0  0  0
   19.3422   -3.2660    0.0000 C   0  0  0  0  0  0  0  0  0  0  0  0
   20.1365   -3.4794    0.0000 C   0  0  0  0  0  0  0  0  0  0  0  0
   20.7175   -2.8948    0.0000 N   0  0  0  0  0  0  0  0  0  0  0  0
   19.1214   -2.4746    0.0000 C   0  0  0  0  0  0  0  0  0  0  0  0
   19.6989   -1.8885    0.0000 C   0  0  0  0  0  0  0  0  0  0  0  0
   20.4967   -2.1008    0.0000 C   0  0  0  0  0  0  0  0  0  0  0  0
   21.0774   -1.5165    0.0000 C   0  0  0  0  0  0  0  0  0  0  0  0
   20.8614   -0.7200    0.0000 C   0  0  0  0  0  0  0  0  0  0  0  0
   20.0597   -0.5108    0.0000 C   0  0  0  0  0  0  0  0  0  0  0  0
   19.4824   -1.0965    0.0000 C   0  0  0  0  0  0  0  0  0  0  0  0
   18.7331   -8.6541    0.0000 O   0  0  0  0  0  0  0  0  0  0  0  0
   19.1415   -9.3666    0.0000 C   0  0  0  0  0  0  0  0  0  0  0  0
   18.7267  -10.0797    0.0000 O   0  0  0  0  0  0  0  0  0  0  0  0
   19.9665   -9.3692    0.0000 C   0  0  0  0  0  0  0  0  0  0  0  0
   20.3767  -10.0849    0.0000 C   0  0  0  0  0  0  0  0  0  0  0  0
   19.9582  -10.7952    0.0000 N   0  0  0  0  0  0  0  0  0  0  0  0
   20.3678  -11.5105    0.0000 C   0  0  0  0  0  0  0  0  0  0  0  0
   21.1936  -11.5136    0.0000 C   0  0  0  0  0  0  0  0  0  0  0  0
   21.6082  -10.7954    0.0000 C   0  0  0  0  0  0  0  0  0  0  0  0
   21.1963  -10.0830    0.0000 C   0  0  0  0  0  0  0  0  0  0  0  0
  2  1  1  0
  3  4  1  0
  4  1  1  0
  5  2  1  0
  6 16  1  0
  7  2  1  0
  8 15  1  0
  9 10  1  0
 10  8  1  0
 11  6  1  0
 12 13  1  0
 13  9  1  0
 14  7  1  0
 15 19  1  0
 12 16  1  6
 17 11  1  0
 18 22  1  0
 19  1  1  0
 20  6  1  0
 21 14  1  0
 22 21  1  0
 23 27  1  0
 24  3  2  0
 17 25  1  1
 26  8  2  0
 27 20  1  0
 28 14  2  0
 11 29  1  6
  1 30  1  6
  7 31  1  6
 13 32  1  1
 18 33  1  1
 19 34  1  1
 21 35  1  6
 36 25  1  0
 37 25  1  0
 27 38  1  1
 39 34  1  0
  2 40  1  1
  6 41  1  6
  5  3  1  0
 18 12  1  0
 17 23  1  0
 28 42  1  0
 10 43  1  1
 18 44  1  0
 44 45  1  0
 45 46  1  0
 46 47  2  0
 47 48  1  0
 48 49  2  0
 49 50  1  0
 50 53  2  0
 52 51  2  0
 51 48  1  0
 52 53  1  0
 53 54  1  0
 54 55  2  0
 55 56  1  0
 56 57  2  0
 57 52  1  0
  9 58  1  6
 58 59  1  0
 59 60  2  0
 59 61  1  0
 61 62  1  0
 62 63  2  0
 63 64  1  0
 64 65  2  0
 65 66  1  0
 66 67  2  0
 67 62  1  0
M  END

> <chembl_id>
CHEMBL4083457

> <chembl_pref_name>
None


$$$$

     RDKit          2D

 59 63  0  0  0  0  0  0  0  0999 V2000
   35.6538   -5.9291    0.0000 C   0  0  0  0  0  0  0  0  0  0  0  0
   35.6538   -5.1042    0.0000 C   0  0  0  0  0  0  0  0  0  0  0  0
   34.3788   -5.5083    0.0000 C   0  0  0  0  0  0  0  0  0  0  0  0
   34.8662   -6.1707    0.0000 O   0  0  0  0  0  0  0  0  0  0  0  0
   34.8662   -4.8333    0.0000 N   0  0  0  0  0  0  0  0  0  0  0  0
   39.9537   -5.1042    0.0000 C   0  0  0  0  0  0  0  0  0  0  0  0
   36.3621   -4.6833    0.0000 C   0  0  0  0  0  0  0  0  0  0  0  0
   37.0871   -7.5583    0.0000 C   0  0  0  0  0  0  0  0  0  0  0  0
   37.7913   -6.3082    0.0000 C   0  0  0  0  0  0  0  0  0  0  0  0
   37.7996   -7.1332    0.0000 C   0  0  0  0  0  0  0  0  0  0  0  0
   40.6787   -4.6708    0.0000 C   0  0  0  0  0  0  0  0  0  0  0  0
   38.5037   -5.1042    0.0000 C   0  0  0  0  0  0  0  0  0  0  0  0
   38.5037   -5.9291    0.0000 C   0  0  0  0  0  0  0  0  0  0  0  0
   36.3621   -3.8583    0.0000 C   0  0  0  0  0  0  0  0  0  0  0  0
   36.3787   -7.1458    0.0000 O   0  0  0  0  0  0  0  0  0  0  0  0
   39.2288   -4.6917    0.0000 O   0  0  0  0  0  0  0  0  0  0  0  0
   41.4038   -5.0958    0.0000 C   0  0  0  0  0  0  0  0  0  0  0  0
   37.7996   -4.6833    0.0000 C   0  0  0  0  0  0  0  0  0  0  0  0
   36.3621   -6.3333    0.0000 C   0  0  0  0  0  0  0  0  0  0  0  0
   39.9663   -5.9333    0.0000 O   0  0  0  0  0  0  0  0  0  0  0  0
   37.0746   -3.4333    0.0000 C   0  0  0  0  0  0  0  0  0  0  0  0
   37.7996   -3.8583    0.0000 C   0  0  0  0  0  0  0  0  0  0  0  0
   41.4038   -5.9291    0.0000 C   0  0  0  0  0  0  0  0  0  0  0  0
   33.5496   -5.5083    0.0000 O   0  0  0  0  0  0  0  0  0  0  0  0
   42.1246   -4.6708    0.0000 N   0  0  0  0  0  0  0  0  0  0  0  0
   37.0996   -8.3915    0.0000 O   0  0  0  0  0  0  0  0  0  0  0  0
   37.0746   -5.8957    0.0000 O   0  0  0  0  0  0  0  0  0  0  0  0
   40.6787   -6.3458    0.0000 C   0  0  0  0  0  0  0  0  0  0  0  0
   35.6413   -3.4333    0.0000 O   0  0  0  0  0  0  0  0  0  0  0  0
   40.6663   -3.8458    0.0000 O   0  0  0  0  0  0  0  0  0  0  0  0
   35.2288   -6.6416    0.0000 C   0  0  0  0  0  0  0  0  0  0  0  0
   37.3746   -5.4041    0.0000 O   0  0  0  0  0  0  0  0  0  0  0  0
   37.0334   -4.8515    0.0000 C   0  0  0  0  0  0  0  0  0  0  0  0
   38.5163   -7.5332    0.0000 C   0  0  0  0  0  0  0  0  0  0  0  0
   39.2038   -6.3541    0.0000 C   0  0  0  0  0  0  0  0  0  0  0  0
   37.0746   -4.2708    0.0000 C   0  0  0  0  0  0  0  0  0  0  0  0
   35.6413   -6.7458    0.0000 C   0  0  0  0  0  0  0  0  0  0  0  0
   37.0746   -2.6083    0.0000 C   0  0  0  0  0  0  0  0  0  0  0  0
   42.1246   -3.8458    0.0000 C   0  0  0  0  0  0  0  0  0  0  0  0
   42.8412   -5.0958    0.0000 C   0  0  0  0  0  0  0  0  0  0  0  0
   40.6787   -7.1708    0.0000 C   0  0  0  0  0  0  0  0  0  0  0  0
   36.5413   -5.3958    0.0000 C   0  0  0  0  0  0  0  0  0  0  0  0
   35.6288   -7.5708    0.0000 C   0  0  0  0  0  0  0  0  0  0  0  0
   35.6538   -4.2666    0.0000 H   0  0  0  0  0  0  0  0  0  0  0  0
   39.3413   -5.6541    0.0000 H   0  0  0  0  0  0  0  0  0  0  0  0
   34.6170   -4.0469    0.0000 C   0  0  0  0  0  0  0  0  0  0  0  0
   33.8113   -3.8696    0.0000 C   0  0  0  0  0  0  0  0  0  0  0  0
   33.5619   -3.0831    0.0000 C   0  0  0  0  0  0  0  0  0  0  0  0
   32.7562   -2.9059    0.0000 C   0  0  0  0  0  0  0  0  0  0  0  0
   32.5068   -2.1195    0.0000 C   0  0  0  0  0  0  0  0  0  0  0  0
   32.0079   -0.5491    0.0000 C   0  0  0  0  0  0  0  0  0  0  0  0
   31.4507   -1.1632    0.0000 N   0  0  0  0  0  0  0  0  0  0  0  0
   31.7023   -1.9466    0.0000 C   0  0  0  0  0  0  0  0  0  0  0  0
   32.8144   -0.7270    0.0000 C   0  0  0  0  0  0  0  0  0  0  0  0
   33.0604   -1.5158    0.0000 C   0  0  0  0  0  0  0  0  0  0  0  0
   33.8648   -1.6958    0.0000 C   0  0  0  0  0  0  0  0  0  0  0  0
   34.4242   -1.0881    0.0000 C   0  0  0  0  0  0  0  0  0  0  0  0
   34.1735   -0.2975    0.0000 C   0  0  0  0  0  0  0  0  0  0  0  0
   33.3696   -0.1211    0.0000 C   0  0  0  0  0  0  0  0  0  0  0  0
  2  1  1  0
  3  4  1  0
  4  1  1  0
  5  2  1  0
  6 16  1  0
  7  2  1  0
  8 15  1  0
  9 10  1  0
 10  8  1  0
 11  6  1  0
 12 13  1  0
 13  9  1  0
 14  7  1  0
 15 19  1  0
 12 16  1  6
 17 11  1  0
 18 22  1  0
 19  1  1  0
 20  6  1  0
 21 14  1  0
 22 21  1  0
 23 28  1  0
 24  3  2  0
 17 25  1  1
 26  8  2  0
 27  9  2  0
 28 20  1  0
 29 14  2  0
 11 30  1  6
  1 31  1  6
 32 18  1  0
  7 33  1  6
 10 34  1  1
 13 35  1  1
 18 36  1  1
 19 37  1  1
 21 38  1  6
 39 25  1  0
 40 25  1  0
 28 41  1  1
 42 32  1  0
 43 37  1  0
  2 44  1  1
  6 45  1  6
  5  3  1  0
 18 12  1  0
 17 23  1  0
  5 46  1  0
 46 47  1  0
 47 48  1  0
 48 49  2  0
 49 50  1  0
 50 55  2  0
 54 51  2  0
 51 52  1  0
 52 53  2  0
 53 50  1  0
 54 55  1  0
 55 56  1  0
 56 57  2  0
 57 58  1  0
 58 59  2  0
 59 54  1  0
M  END

> <chembl_id>
CHEMBL4126522

> <chembl_pref_name>
None


$$$$

     RDKit          2D

 60 64  0  0  0  0  0  0  0  0999 V2000
   19.6250  -17.8296    0.0000 C   0  0  0  0  0  0  0  0  0  0  0  0
   19.6250  -17.0124    0.0000 C   0  0  0  0  0  0  0  0  0  0  0  0
   18.3620  -17.4128    0.0000 C   0  0  0  0  0  0  0  0  0  0  0  0
   18.8449  -18.0690    0.0000 O   0  0  0  0  0  0  0  0  0  0  0  0
   18.8449  -16.7442    0.0000 N   0  0  0  0  0  0  0  0  0  0  0  0
   23.8843  -17.0124    0.0000 C   0  0  0  0  0  0  0  0  0  0  0  0
   20.3266  -16.5956    0.0000 C   0  0  0  0  0  0  0  0  0  0  0  0
   21.0447  -19.4434    0.0000 C   0  0  0  0  0  0  0  0  0  0  0  0
   21.7422  -18.2052    0.0000 C   0  0  0  0  0  0  0  0  0  0  0  0
   21.7505  -19.0224    0.0000 C   0  0  0  0  0  0  0  0  0  0  0  0
   24.6024  -16.5832    0.0000 C   0  0  0  0  0  0  0  0  0  0  0  0
   22.4480  -17.0124    0.0000 C   0  0  0  0  0  0  0  0  0  0  0  0
   22.4480  -17.8296    0.0000 C   0  0  0  0  0  0  0  0  0  0  0  0
   20.3266  -15.7784    0.0000 C   0  0  0  0  0  0  0  0  0  0  0  0
   20.3431  -19.0348    0.0000 O   0  0  0  0  0  0  0  0  0  0  0  0
   23.1661  -16.6038    0.0000 O   0  0  0  0  0  0  0  0  0  0  0  0
   25.3205  -17.0042    0.0000 C   0  0  0  0  0  0  0  0  0  0  0  0
   21.7505  -16.5956    0.0000 C   0  0  0  0  0  0  0  0  0  0  0  0
   20.3266  -18.2300    0.0000 C   0  0  0  0  0  0  0  0  0  0  0  0
   23.8967  -17.8338    0.0000 O   0  0  0  0  0  0  0  0  0  0  0  0
   21.0324  -15.3574    0.0000 C   0  0  0  0  0  0  0  0  0  0  0  0
   21.7505  -15.7784    0.0000 C   0  0  0  0  0  0  0  0  0  0  0  0
   25.3205  -17.8296    0.0000 C   0  0  0  0  0  0  0  0  0  0  0  0
   17.5407  -17.4128    0.0000 O   0  0  0  0  0  0  0  0  0  0  0  0
   26.0346  -16.5832    0.0000 N   0  0  0  0  0  0  0  0  0  0  0  0
   21.0571  -20.2688    0.0000 O   0  0  0  0  0  0  0  0  0  0  0  0
   21.0324  -17.7966    0.0000 O   0  0  0  0  0  0  0  0  0  0  0  0
   24.6024  -18.2424    0.0000 C   0  0  0  0  0  0  0  0  0  0  0  0
   19.6126  -15.3574    0.0000 O   0  0  0  0  0  0  0  0  0  0  0  0
   24.5900  -15.7660    0.0000 O   0  0  0  0  0  0  0  0  0  0  0  0
   19.2040  -18.5354    0.0000 C   0  0  0  0  0  0  0  0  0  0  0  0
   21.3295  -17.3096    0.0000 O   0  0  0  0  0  0  0  0  0  0  0  0
   20.9915  -16.7287    0.0000 C   0  0  0  0  0  0  0  0  0  0  0  0
   22.4604  -19.4186    0.0000 C   0  0  0  0  0  0  0  0  0  0  0  0
   23.1414  -18.2506    0.0000 C   0  0  0  0  0  0  0  0  0  0  0  0
   21.0324  -16.1870    0.0000 C   0  0  0  0  0  0  0  0  0  0  0  0
   19.6126  -18.6386    0.0000 C   0  0  0  0  0  0  0  0  0  0  0  0
   21.0324  -14.5402    0.0000 C   0  0  0  0  0  0  0  0  0  0  0  0
   26.0346  -15.7660    0.0000 C   0  0  0  0  0  0  0  0  0  0  0  0
   26.7444  -17.0042    0.0000 C   0  0  0  0  0  0  0  0  0  0  0  0
   24.6024  -19.0595    0.0000 C   0  0  0  0  0  0  0  0  0  0  0  0
   20.5041  -17.3013    0.0000 C   0  0  0  0  0  0  0  0  0  0  0  0
   19.6002  -19.4558    0.0000 C   0  0  0  0  0  0  0  0  0  0  0  0
   19.6250  -16.1829    0.0000 H   0  0  0  0  0  0  0  0  0  0  0  0
   23.2776  -17.5572    0.0000 H   0  0  0  0  0  0  0  0  0  0  0  0
   18.5979  -15.9652    0.0000 C   0  0  0  0  0  0  0  0  0  0  0  0
   17.7998  -15.7896    0.0000 C   0  0  0  0  0  0  0  0  0  0  0  0
   17.5529  -15.0106    0.0000 C   0  0  0  0  0  0  0  0  0  0  0  0
   16.7548  -14.8350    0.0000 C   0  0  0  0  0  0  0  0  0  0  0  0
   16.5078  -14.0561    0.0000 C   0  0  0  0  0  0  0  0  0  0  0  0
   16.0136  -12.5005    0.0000 C   0  0  0  0  0  0  0  0  0  0  0  0
   15.4616  -13.1088    0.0000 N   0  0  0  0  0  0  0  0  0  0  0  0
   15.7109  -13.8848    0.0000 C   0  0  0  0  0  0  0  0  0  0  0  0
   16.8125  -12.6767    0.0000 C   0  0  0  0  0  0  0  0  0  0  0  0
   17.0560  -13.4581    0.0000 C   0  0  0  0  0  0  0  0  0  0  0  0
   17.8529  -13.6364    0.0000 C   0  0  0  0  0  0  0  0  0  0  0  0
   18.4070  -13.0344    0.0000 C   0  0  0  0  0  0  0  0  0  0  0  0
   18.1587  -12.2512    0.0000 C   0  0  0  0  0  0  0  0  0  0  0  0
   17.3624  -12.0766    0.0000 C   0  0  0  0  0  0  0  0  0  0  0  0
   18.7096  -11.6477    0.0000 C   0  0  0  0  0  0  0  0  0  0  0  0
  2  1  1  0
  3  4  1  0
  4  1  1  0
  5  2  1  0
  6 16  1  0
  7  2  1  0
  8 15  1  0
  9 10  1  0
 10  8  1  0
 11  6  1  0
 12 13  1  0
 13  9  1  0
 14  7  1  0
 15 19  1  0
 12 16  1  6
 17 11  1  0
 18 22  1  0
 19  1  1  0
 20  6  1  0
 21 14  1  0
 22 21  1  0
 23 28  1  0
 24  3  2  0
 17 25  1  1
 26  8  2  0
 27  9  2  0
 28 20  1  0
 29 14  2  0
 11 30  1  6
  1 31  1  6
 32 18  1  0
  7 33  1  6
 10 34  1  1
 13 35  1  1
 18 36  1  1
 19 37  1  1
 21 38  1  6
 39 25  1  0
 40 25  1  0
 28 41  1  1
 42 32  1  0
 43 37  1  0
  2 44  1  1
  6 45  1  6
  5  3  1  0
 18 12  1  0
 17 23  1  0
  5 46  1  0
 46 47  1  0
 47 48  1  0
 48 49  2  0
 49 50  1  0
 50 55  2  0
 54 51  2  0
 51 52  1  0
 52 53  2  0
 53 50  1  0
 54 55  1  0
 55 56  1  0
 56 57  2  0
 57 58  1  0
 58 59  2  0
 59 54  1  0
 58 60  1  0
M  END

> <chembl_id>
CHEMBL4126652

> <chembl_pref_name>
None


$$$$

     RDKit          2D

 67 72  0  0  0  0  0  0  0  0999 V2000
    6.1496  -18.1681    0.0000 C   0  0  0  0  0  0  0  0  0  0  0  0
    6.1496  -17.3509    0.0000 C   0  0  0  0  0  0  0  0  0  0  0  0
    4.8866  -17.7512    0.0000 C   0  0  0  0  0  0  0  0  0  0  0  0
    5.3695  -18.4074    0.0000 O   0  0  0  0  0  0  0  0  0  0  0  0
    5.3695  -17.0826    0.0000 N   0  0  0  0  0  0  0  0  0  0  0  0
   10.4089  -17.3509    0.0000 C   0  0  0  0  0  0  0  0  0  0  0  0
    6.8512  -16.9340    0.0000 C   0  0  0  0  0  0  0  0  0  0  0  0
    7.5693  -19.7818    0.0000 C   0  0  0  0  0  0  0  0  0  0  0  0
    8.2668  -18.5436    0.0000 C   0  0  0  0  0  0  0  0  0  0  0  0
    8.2751  -19.3608    0.0000 C   0  0  0  0  0  0  0  0  0  0  0  0
   11.1270  -16.9216    0.0000 C   0  0  0  0  0  0  0  0  0  0  0  0
    8.9726  -17.3509    0.0000 C   0  0  0  0  0  0  0  0  0  0  0  0
    8.9726  -18.1681    0.0000 C   0  0  0  0  0  0  0  0  0  0  0  0
    6.8512  -16.1168    0.0000 C   0  0  0  0  0  0  0  0  0  0  0  0
    6.8677  -19.3732    0.0000 O   0  0  0  0  0  0  0  0  0  0  0  0
    9.6907  -16.9423    0.0000 O   0  0  0  0  0  0  0  0  0  0  0  0
   11.8451  -17.3426    0.0000 C   0  0  0  0  0  0  0  0  0  0  0  0
    8.2751  -16.9340    0.0000 C   0  0  0  0  0  0  0  0  0  0  0  0
    6.8512  -18.5684    0.0000 C   0  0  0  0  0  0  0  0  0  0  0  0
   10.4213  -18.1722    0.0000 O   0  0  0  0  0  0  0  0  0  0  0  0
    7.5570  -15.6959    0.0000 C   0  0  0  0  0  0  0  0  0  0  0  0
    8.2751  -16.1168    0.0000 C   0  0  0  0  0  0  0  0  0  0  0  0
   11.8451  -18.1681    0.0000 C   0  0  0  0  0  0  0  0  0  0  0  0
    4.0653  -17.7512    0.0000 O   0  0  0  0  0  0  0  0  0  0  0  0
   12.5592  -16.9216    0.0000 N   0  0  0  0  0  0  0  0  0  0  0  0
    7.5817  -20.6073    0.0000 O   0  0  0  0  0  0  0  0  0  0  0  0
    7.5570  -18.1350    0.0000 O   0  0  0  0  0  0  0  0  0  0  0  0
   11.1270  -18.5808    0.0000 C   0  0  0  0  0  0  0  0  0  0  0  0
    6.1372  -15.6959    0.0000 O   0  0  0  0  0  0  0  0  0  0  0  0
   11.1146  -16.1044    0.0000 O   0  0  0  0  0  0  0  0  0  0  0  0
    5.7286  -18.8738    0.0000 C   0  0  0  0  0  0  0  0  0  0  0  0
    7.8541  -17.6480    0.0000 O   0  0  0  0  0  0  0  0  0  0  0  0
    7.5161  -17.0336    0.0000 C   0  0  0  0  0  0  0  0  0  0  0  0
    8.9850  -19.7570    0.0000 C   0  0  0  0  0  0  0  0  0  0  0  0
    9.6660  -18.5890    0.0000 C   0  0  0  0  0  0  0  0  0  0  0  0
    7.5570  -16.5254    0.0000 C   0  0  0  0  0  0  0  0  0  0  0  0
    6.1372  -18.9770    0.0000 C   0  0  0  0  0  0  0  0  0  0  0  0
    7.5570  -14.8787    0.0000 C   0  0  0  0  0  0  0  0  0  0  0  0
   12.5592  -16.1044    0.0000 C   0  0  0  0  0  0  0  0  0  0  0  0
   13.2690  -17.3426    0.0000 C   0  0  0  0  0  0  0  0  0  0  0  0
   11.1270  -19.3980    0.0000 C   0  0  0  0  0  0  0  0  0  0  0  0
    7.0287  -17.6398    0.0000 C   0  0  0  0  0  0  0  0  0  0  0  0
    6.1248  -19.7942    0.0000 C   0  0  0  0  0  0  0  0  0  0  0  0
    6.1496  -16.5213    0.0000 H   0  0  0  0  0  0  0  0  0  0  0  0
    9.8022  -17.8957    0.0000 H   0  0  0  0  0  0  0  0  0  0  0  0
    5.1225  -16.3036    0.0000 C   0  0  0  0  0  0  0  0  0  0  0  0
    4.3244  -16.1280    0.0000 C   0  0  0  0  0  0  0  0  0  0  0  0
    4.0775  -15.3491    0.0000 C   0  0  0  0  0  0  0  0  0  0  0  0
    3.2794  -15.1735    0.0000 C   0  0  0  0  0  0  0  0  0  0  0  0
    3.0324  -14.3945    0.0000 C   0  0  0  0  0  0  0  0  0  0  0  0
    2.5382  -12.8389    0.0000 C   0  0  0  0  0  0  0  0  0  0  0  0
    1.9862  -13.4472    0.0000 N   0  0  0  0  0  0  0  0  0  0  0  0
    2.2355  -14.2232    0.0000 C   0  0  0  0  0  0  0  0  0  0  0  0
    3.3371  -13.0151    0.0000 C   0  0  0  0  0  0  0  0  0  0  0  0
    3.5806  -13.7965    0.0000 C   0  0  0  0  0  0  0  0  0  0  0  0
    4.3775  -13.9749    0.0000 C   0  0  0  0  0  0  0  0  0  0  0  0
    4.9316  -13.3728    0.0000 C   0  0  0  0  0  0  0  0  0  0  0  0
    4.6833  -12.5897    0.0000 C   0  0  0  0  0  0  0  0  0  0  0  0
    3.8870  -12.4150    0.0000 C   0  0  0  0  0  0  0  0  0  0  0  0
    5.7293  -13.5499    0.0000 O   0  0  0  0  0  0  0  0  0  0  0  0
    6.2816  -12.9476    0.0000 C   0  0  0  0  0  0  0  0  0  0  0  0
    7.0794  -13.1247    0.0000 C   0  0  0  0  0  0  0  0  0  0  0  0
    7.3214  -13.9062    0.0000 C   0  0  0  0  0  0  0  0  0  0  0  0
    8.1184  -14.0835    0.0000 C   0  0  0  0  0  0  0  0  0  0  0  0
    8.6716  -13.4808    0.0000 C   0  0  0  0  0  0  0  0  0  0  0  0
    8.4223  -12.6981    0.0000 C   0  0  0  0  0  0  0  0  0  0  0  0
    7.6259  -12.5246    0.0000 C   0  0  0  0  0  0  0  0  0  0  0  0
  2  1  1  0
  3  4  1  0
  4  1  1  0
  5  2  1  0
  6 16  1  0
  7  2  1  0
  8 15  1  0
  9 10  1  0
 10  8  1  0
 11  6  1  0
 12 13  1  0
 13  9  1  0
 14  7  1  0
 15 19  1  0
 12 16  1  6
 17 11  1  0
 18 22  1  0
 19  1  1  0
 20  6  1  0
 21 14  1  0
 22 21  1  0
 23 28  1  0
 24  3  2  0
 17 25  1  1
 26  8  2  0
 27  9  2  0
 28 20  1  0
 29 14  2  0
 11 30  1  6
  1 31  1  6
 32 18  1  0
  7 33  1  6
 10 34  1  1
 13 35  1  1
 18 36  1  1
 19 37  1  1
 21 38  1  6
 39 25  1  0
 40 25  1  0
 28 41  1  1
 42 32  1  0
 43 37  1  0
  2 44  1  1
  6 45  1  6
  5  3  1  0
 18 12  1  0
 17 23  1  0
  5 46  1  0
 46 47  1  0
 47 48  1  0
 48 49  2  0
 49 50  1  0
 50 55  2  0
 54 51  2  0
 51 52  1  0
 52 53  2  0
 53 50  1  0
 54 55  1  0
 55 56  1  0
 56 57  2  0
 57 58  1  0
 58 59  2  0
 59 54  1  0
 57 60  1  0
 60 61  1  0
 61 62  1  0
 62 63  2  0
 63 64  1  0
 64 65  2  0
 65 66  1  0
 66 67  2  0
 67 62  1  0
M  END

> <chembl_id>
CHEMBL4127339

> <chembl_pref_name>
None


$$$$

     RDKit          2D

 60 64  0  0  0  0  0  0  0  0999 V2000
    6.6201  -16.6823    0.0000 C   0  0  0  0  0  0  0  0  0  0  0  0
    6.6201  -15.8651    0.0000 C   0  0  0  0  0  0  0  0  0  0  0  0
    5.3571  -16.2654    0.0000 C   0  0  0  0  0  0  0  0  0  0  0  0
    5.8400  -16.9216    0.0000 O   0  0  0  0  0  0  0  0  0  0  0  0
    5.8400  -15.5968    0.0000 N   0  0  0  0  0  0  0  0  0  0  0  0
   10.8794  -15.8651    0.0000 C   0  0  0  0  0  0  0  0  0  0  0  0
    7.3217  -15.4482    0.0000 C   0  0  0  0  0  0  0  0  0  0  0  0
    8.0398  -18.2960    0.0000 C   0  0  0  0  0  0  0  0  0  0  0  0
    8.7373  -17.0578    0.0000 C   0  0  0  0  0  0  0  0  0  0  0  0
    8.7456  -17.8750    0.0000 C   0  0  0  0  0  0  0  0  0  0  0  0
   11.5975  -15.4358    0.0000 C   0  0  0  0  0  0  0  0  0  0  0  0
    9.4431  -15.8651    0.0000 C   0  0  0  0  0  0  0  0  0  0  0  0
    9.4431  -16.6823    0.0000 C   0  0  0  0  0  0  0  0  0  0  0  0
    7.3217  -14.6310    0.0000 C   0  0  0  0  0  0  0  0  0  0  0  0
    7.3382  -17.8874    0.0000 O   0  0  0  0  0  0  0  0  0  0  0  0
   10.1612  -15.4565    0.0000 O   0  0  0  0  0  0  0  0  0  0  0  0
   12.3157  -15.8568    0.0000 C   0  0  0  0  0  0  0  0  0  0  0  0
    8.7456  -15.4482    0.0000 C   0  0  0  0  0  0  0  0  0  0  0  0
    7.3217  -17.0826    0.0000 C   0  0  0  0  0  0  0  0  0  0  0  0
   10.8918  -16.6864    0.0000 O   0  0  0  0  0  0  0  0  0  0  0  0
    8.0275  -14.2100    0.0000 C   0  0  0  0  0  0  0  0  0  0  0  0
    8.7456  -14.6310    0.0000 C   0  0  0  0  0  0  0  0  0  0  0  0
   12.3157  -16.6823    0.0000 C   0  0  0  0  0  0  0  0  0  0  0  0
    4.5358  -16.2654    0.0000 O   0  0  0  0  0  0  0  0  0  0  0  0
   13.0297  -15.4358    0.0000 N   0  0  0  0  0  0  0  0  0  0  0  0
    8.0522  -19.1215    0.0000 O   0  0  0  0  0  0  0  0  0  0  0  0
    8.0275  -16.6492    0.0000 O   0  0  0  0  0  0  0  0  0  0  0  0
   11.5975  -17.0950    0.0000 C   0  0  0  0  0  0  0  0  0  0  0  0
    6.6077  -14.2100    0.0000 O   0  0  0  0  0  0  0  0  0  0  0  0
   11.5851  -14.6186    0.0000 O   0  0  0  0  0  0  0  0  0  0  0  0
    6.1991  -17.3880    0.0000 C   0  0  0  0  0  0  0  0  0  0  0  0
    8.3246  -16.1622    0.0000 O   0  0  0  0  0  0  0  0  0  0  0  0
    7.9532  -15.5888    0.0000 C   0  0  0  0  0  0  0  0  0  0  0  0
    9.4555  -18.2712    0.0000 C   0  0  0  0  0  0  0  0  0  0  0  0
   10.1365  -17.1032    0.0000 C   0  0  0  0  0  0  0  0  0  0  0  0
    8.0275  -15.0396    0.0000 C   0  0  0  0  0  0  0  0  0  0  0  0
    6.6077  -17.4912    0.0000 C   0  0  0  0  0  0  0  0  0  0  0  0
    8.0275  -13.3929    0.0000 C   0  0  0  0  0  0  0  0  0  0  0  0
   13.0297  -14.6186    0.0000 C   0  0  0  0  0  0  0  0  0  0  0  0
   13.7395  -15.8568    0.0000 C   0  0  0  0  0  0  0  0  0  0  0  0
   11.5975  -17.9122    0.0000 C   0  0  0  0  0  0  0  0  0  0  0  0
    7.4992  -16.1540    0.0000 C   0  0  0  0  0  0  0  0  0  0  0  0
    6.5953  -18.3084    0.0000 C   0  0  0  0  0  0  0  0  0  0  0  0
    6.6201  -15.0355    0.0000 H   0  0  0  0  0  0  0  0  0  0  0  0
   10.2727  -16.4099    0.0000 H   0  0  0  0  0  0  0  0  0  0  0  0
    5.5930  -14.8178    0.0000 C   0  0  0  0  0  0  0  0  0  0  0  0
    4.7949  -14.6422    0.0000 C   0  0  0  0  0  0  0  0  0  0  0  0
    4.5480  -13.8633    0.0000 C   0  0  0  0  0  0  0  0  0  0  0  0
    3.7499  -13.6877    0.0000 C   0  0  0  0  0  0  0  0  0  0  0  0
    8.7415  -18.6922    0.0000 F   0  0  0  0  0  0  0  0  0  0  0  0
    3.5029  -12.9087    0.0000 C   0  0  0  0  0  0  0  0  0  0  0  0
    4.0540  -12.3077    0.0000 C   0  0  0  0  0  0  0  0  0  0  0  0
    2.4567  -11.9614    0.0000 N   0  0  0  0  0  0  0  0  0  0  0  0
    2.7060  -12.7374    0.0000 C   0  0  0  0  0  0  0  0  0  0  0  0
    3.0087  -11.3531    0.0000 C   0  0  0  0  0  0  0  0  0  0  0  0
    3.8037  -11.5292    0.0000 C   0  0  0  0  0  0  0  0  0  0  0  0
    4.3517  -10.9295    0.0000 C   0  0  0  0  0  0  0  0  0  0  0  0
    4.1059  -10.1534    0.0000 C   0  0  0  0  0  0  0  0  0  0  0  0
    3.3071   -9.9805    0.0000 C   0  0  0  0  0  0  0  0  0  0  0  0
    2.7625  -10.5816    0.0000 C   0  0  0  0  0  0  0  0  0  0  0  0
  2  1  1  0
  3  4  1  0
  4  1  1  0
  5  2  1  0
  6 16  1  0
  7  2  1  0
  8 15  1  0
  9 10  1  0
 10  8  1  0
 11  6  1  0
 12 13  1  0
 13  9  1  0
 14  7  1  0
 15 19  1  0
 12 16  1  6
 17 11  1  0
 18 22  1  0
 19  1  1  0
 20  6  1  0
 21 14  1  0
 22 21  1  0
 23 28  1  0
 24  3  2  0
 17 25  1  1
 26  8  2  0
 27  9  2  0
 28 20  1  0
 29 14  2  0
 11 30  1  6
  1 31  1  6
 32 18  1  0
  7 33  1  6
 10 34  1  1
 13 35  1  1
 18 36  1  1
 19 37  1  1
 21 38  1  6
 39 25  1  0
 40 25  1  0
 28 41  1  1
 42 32  1  0
 43 37  1  0
  2 44  1  1
  6 45  1  6
  5  3  1  0
 18 12  1  0
 17 23  1  0
  5 46  1  0
 46 47  1  0
 47 48  1  0
 48 49  2  0
 10 50  1  0
 49 51  1  0
 51 52  2  0
 52 56  1  0
 55 53  1  0
 53 54  2  0
 54 51  1  0
 55 56  1  0
 56 57  2  0
 57 58  1  0
 58 59  2  0
 59 60  1  0
 60 55  2  0
M  END

> <chembl_id>
CHEMBL4127475

> <chembl_pref_name>
None


$$$$

     RDKit          2D

 59 63  0  0  0  0  0  0  0  0999 V2000
   20.2193  -12.4518    0.0000 C   0  0  0  0  0  0  0  0  0  0  0  0
   20.2193  -11.6347    0.0000 C   0  0  0  0  0  0  0  0  0  0  0  0
   18.9564  -12.0350    0.0000 C   0  0  0  0  0  0  0  0  0  0  0  0
   19.4392  -12.6912    0.0000 O   0  0  0  0  0  0  0  0  0  0  0  0
   19.4392  -11.3664    0.0000 N   0  0  0  0  0  0  0  0  0  0  0  0
   24.4786  -11.6347    0.0000 C   0  0  0  0  0  0  0  0  0  0  0  0
   20.9209  -11.2178    0.0000 C   0  0  0  0  0  0  0  0  0  0  0  0
   21.6391  -14.0656    0.0000 C   0  0  0  0  0  0  0  0  0  0  0  0
   22.3366  -12.8274    0.0000 C   0  0  0  0  0  0  0  0  0  0  0  0
   22.3448  -13.6446    0.0000 C   0  0  0  0  0  0  0  0  0  0  0  0
   25.1967  -11.2054    0.0000 C   0  0  0  0  0  0  0  0  0  0  0  0
   23.0423  -11.6347    0.0000 C   0  0  0  0  0  0  0  0  0  0  0  0
   23.0423  -12.4518    0.0000 C   0  0  0  0  0  0  0  0  0  0  0  0
   20.9209  -10.4006    0.0000 C   0  0  0  0  0  0  0  0  0  0  0  0
   20.9374  -13.6570    0.0000 O   0  0  0  0  0  0  0  0  0  0  0  0
   23.7605  -11.2261    0.0000 O   0  0  0  0  0  0  0  0  0  0  0  0
   25.9149  -11.6264    0.0000 C   0  0  0  0  0  0  0  0  0  0  0  0
   22.3448  -11.2178    0.0000 C   0  0  0  0  0  0  0  0  0  0  0  0
   20.9209  -12.8522    0.0000 C   0  0  0  0  0  0  0  0  0  0  0  0
   24.4910  -12.4560    0.0000 O   0  0  0  0  0  0  0  0  0  0  0  0
   21.6267   -9.9796    0.0000 C   0  0  0  0  0  0  0  0  0  0  0  0
   22.3448  -10.4006    0.0000 C   0  0  0  0  0  0  0  0  0  0  0  0
   25.9149  -12.4518    0.0000 C   0  0  0  0  0  0  0  0  0  0  0  0
   18.1350  -12.0350    0.0000 O   0  0  0  0  0  0  0  0  0  0  0  0
   26.6289  -11.2054    0.0000 N   0  0  0  0  0  0  0  0  0  0  0  0
   21.6514  -14.8910    0.0000 O   0  0  0  0  0  0  0  0  0  0  0  0
   21.6267  -12.4188    0.0000 O   0  0  0  0  0  0  0  0  0  0  0  0
   25.1967  -12.8646    0.0000 C   0  0  0  0  0  0  0  0  0  0  0  0
   20.2069   -9.9796    0.0000 O   0  0  0  0  0  0  0  0  0  0  0  0
   25.1843  -10.3882    0.0000 O   0  0  0  0  0  0  0  0  0  0  0  0
   19.7983  -13.1576    0.0000 C   0  0  0  0  0  0  0  0  0  0  0  0
   21.9238  -11.9318    0.0000 O   0  0  0  0  0  0  0  0  0  0  0  0
   21.5524  -11.4178    0.0000 C   0  0  0  0  0  0  0  0  0  0  0  0
   23.0547  -14.0408    0.0000 C   0  0  0  0  0  0  0  0  0  0  0  0
   23.7357  -12.8728    0.0000 C   0  0  0  0  0  0  0  0  0  0  0  0
   21.6267  -10.8092    0.0000 C   0  0  0  0  0  0  0  0  0  0  0  0
   20.2069  -13.2608    0.0000 C   0  0  0  0  0  0  0  0  0  0  0  0
   21.6267   -9.1624    0.0000 C   0  0  0  0  0  0  0  0  0  0  0  0
   26.6289  -10.3882    0.0000 C   0  0  0  0  0  0  0  0  0  0  0  0
   27.3388  -11.6264    0.0000 C   0  0  0  0  0  0  0  0  0  0  0  0
   25.1967  -13.6818    0.0000 C   0  0  0  0  0  0  0  0  0  0  0  0
   21.0984  -11.9236    0.0000 C   0  0  0  0  0  0  0  0  0  0  0  0
   20.1945  -14.0780    0.0000 C   0  0  0  0  0  0  0  0  0  0  0  0
   20.2193  -10.8051    0.0000 H   0  0  0  0  0  0  0  0  0  0  0  0
   23.8719  -12.1795    0.0000 H   0  0  0  0  0  0  0  0  0  0  0  0
   19.1923  -10.5874    0.0000 C   0  0  0  0  0  0  0  0  0  0  0  0
   18.3942  -10.4118    0.0000 C   0  0  0  0  0  0  0  0  0  0  0  0
   18.1472   -9.6328    0.0000 C   0  0  0  0  0  0  0  0  0  0  0  0
   17.3491   -9.4572    0.0000 C   0  0  0  0  0  0  0  0  0  0  0  0
   17.1021   -8.6783    0.0000 C   0  0  0  0  0  0  0  0  0  0  0  0
   17.6532   -8.0773    0.0000 C   0  0  0  0  0  0  0  0  0  0  0  0
   16.0559   -7.7310    0.0000 N   0  0  0  0  0  0  0  0  0  0  0  0
   16.3052   -8.5070    0.0000 C   0  0  0  0  0  0  0  0  0  0  0  0
   16.6079   -7.1227    0.0000 C   0  0  0  0  0  0  0  0  0  0  0  0
   17.4029   -7.2988    0.0000 C   0  0  0  0  0  0  0  0  0  0  0  0
   17.9510   -6.6991    0.0000 C   0  0  0  0  0  0  0  0  0  0  0  0
   17.7052   -5.9230    0.0000 C   0  0  0  0  0  0  0  0  0  0  0  0
   16.9063   -5.7501    0.0000 C   0  0  0  0  0  0  0  0  0  0  0  0
   16.3617   -6.3512    0.0000 C   0  0  0  0  0  0  0  0  0  0  0  0
  2  1  1  0
  3  4  1  0
  4  1  1  0
  5  2  1  0
  6 16  1  0
  7  2  1  0
  8 15  1  0
  9 10  1  0
 10  8  1  0
 11  6  1  0
 12 13  1  0
 13  9  1  0
 14  7  1  0
 15 19  1  0
 12 16  1  6
 17 11  1  0
 18 22  1  0
 19  1  1  0
 20  6  1  0
 21 14  1  0
 22 21  1  0
 23 28  1  0
 24  3  2  0
 17 25  1  1
 26  8  2  0
 27  9  2  0
 28 20  1  0
 29 14  2  0
 11 30  1  6
  1 31  1  6
 32 18  1  0
  7 33  1  6
 10 34  1  1
 13 35  1  1
 18 36  1  1
 19 37  1  1
 21 38  1  6
 39 25  1  0
 40 25  1  0
 28 41  1  1
 42 32  1  0
 43 37  1  0
  2 44  1  1
  6 45  1  6
  5  3  1  0
 18 12  1  0
 17 23  1  0
  5 46  1  0
 46 47  1  0
 47 48  1  0
 48 49  2  0
 49 50  1  0
 50 51  2  0
 51 55  1  0
 54 52  1  0
 52 53  2  0
 53 50  1  0
 54 55  1  0
 55 56  2  0
 56 57  1  0
 57 58  2  0
 58 59  1  0
 59 54  2  0
M  END

> <chembl_id>
CHEMBL4127758

> <chembl_pref_name>
None


$$$$

     RDKit          2D

 61 65  0  0  0  0  0  0  0  0999 V2000
   32.6711   -7.1236    0.0000 C   0  0  0  0  0  0  0  0  0  0  0  0
   32.6711   -6.3064    0.0000 C   0  0  0  0  0  0  0  0  0  0  0  0
   31.4082   -6.7067    0.0000 C   0  0  0  0  0  0  0  0  0  0  0  0
   31.8911   -7.3630    0.0000 O   0  0  0  0  0  0  0  0  0  0  0  0
   31.8911   -6.0381    0.0000 N   0  0  0  0  0  0  0  0  0  0  0  0
   36.9304   -6.3064    0.0000 C   0  0  0  0  0  0  0  0  0  0  0  0
   33.3728   -5.8896    0.0000 C   0  0  0  0  0  0  0  0  0  0  0  0
   34.0909   -8.7373    0.0000 C   0  0  0  0  0  0  0  0  0  0  0  0
   34.7884   -7.4992    0.0000 C   0  0  0  0  0  0  0  0  0  0  0  0
   34.7967   -8.3164    0.0000 C   0  0  0  0  0  0  0  0  0  0  0  0
   37.6486   -5.8772    0.0000 C   0  0  0  0  0  0  0  0  0  0  0  0
   35.4942   -6.3064    0.0000 C   0  0  0  0  0  0  0  0  0  0  0  0
   35.4942   -7.1236    0.0000 C   0  0  0  0  0  0  0  0  0  0  0  0
   33.3728   -5.0724    0.0000 C   0  0  0  0  0  0  0  0  0  0  0  0
   33.3893   -8.3287    0.0000 O   0  0  0  0  0  0  0  0  0  0  0  0
   36.2123   -5.8978    0.0000 O   0  0  0  0  0  0  0  0  0  0  0  0
   38.3667   -6.2982    0.0000 C   0  0  0  0  0  0  0  0  0  0  0  0
   34.7967   -5.8896    0.0000 C   0  0  0  0  0  0  0  0  0  0  0  0
   33.3728   -7.5239    0.0000 C   0  0  0  0  0  0  0  0  0  0  0  0
   36.9428   -7.1277    0.0000 O   0  0  0  0  0  0  0  0  0  0  0  0
   34.0785   -4.6514    0.0000 C   0  0  0  0  0  0  0  0  0  0  0  0
   34.7967   -5.0724    0.0000 C   0  0  0  0  0  0  0  0  0  0  0  0
   38.3667   -7.1236    0.0000 C   0  0  0  0  0  0  0  0  0  0  0  0
   30.5869   -6.7067    0.0000 O   0  0  0  0  0  0  0  0  0  0  0  0
   39.0807   -5.8772    0.0000 N   0  0  0  0  0  0  0  0  0  0  0  0
   34.1033   -9.5628    0.0000 O   0  0  0  0  0  0  0  0  0  0  0  0
   34.0785   -7.0906    0.0000 O   0  0  0  0  0  0  0  0  0  0  0  0
   37.6486   -7.5363    0.0000 C   0  0  0  0  0  0  0  0  0  0  0  0
   32.6588   -4.6514    0.0000 O   0  0  0  0  0  0  0  0  0  0  0  0
   37.6362   -5.0600    0.0000 O   0  0  0  0  0  0  0  0  0  0  0  0
   32.2502   -7.8294    0.0000 C   0  0  0  0  0  0  0  0  0  0  0  0
   34.3757   -6.6036    0.0000 O   0  0  0  0  0  0  0  0  0  0  0  0
   34.0042   -6.0561    0.0000 C   0  0  0  0  0  0  0  0  0  0  0  0
   35.5065   -8.7126    0.0000 C   0  0  0  0  0  0  0  0  0  0  0  0
   36.1875   -7.5446    0.0000 C   0  0  0  0  0  0  0  0  0  0  0  0
   34.0785   -5.4810    0.0000 C   0  0  0  0  0  0  0  0  0  0  0  0
   32.6588   -7.9325    0.0000 C   0  0  0  0  0  0  0  0  0  0  0  0
   34.0785   -3.8342    0.0000 C   0  0  0  0  0  0  0  0  0  0  0  0
   39.0807   -5.0600    0.0000 C   0  0  0  0  0  0  0  0  0  0  0  0
   39.7906   -6.2982    0.0000 C   0  0  0  0  0  0  0  0  0  0  0  0
   37.6486   -8.3535    0.0000 C   0  0  0  0  0  0  0  0  0  0  0  0
   33.5502   -6.5953    0.0000 C   0  0  0  0  0  0  0  0  0  0  0  0
   32.6464   -8.7497    0.0000 C   0  0  0  0  0  0  0  0  0  0  0  0
   32.6711   -5.4768    0.0000 H   0  0  0  0  0  0  0  0  0  0  0  0
   36.3237   -6.8512    0.0000 H   0  0  0  0  0  0  0  0  0  0  0  0
   31.6441   -5.2592    0.0000 C   0  0  0  0  0  0  0  0  0  0  0  0
   30.8460   -5.0836    0.0000 C   0  0  0  0  0  0  0  0  0  0  0  0
   30.5990   -4.3046    0.0000 C   0  0  0  0  0  0  0  0  0  0  0  0
   29.8009   -4.1290    0.0000 C   0  0  0  0  0  0  0  0  0  0  0  0
   29.5539   -3.3500    0.0000 C   0  0  0  0  0  0  0  0  0  0  0  0
   29.0598   -1.7945    0.0000 C   0  0  0  0  0  0  0  0  0  0  0  0
   28.5078   -2.4027    0.0000 N   0  0  0  0  0  0  0  0  0  0  0  0
   28.7571   -3.1788    0.0000 C   0  0  0  0  0  0  0  0  0  0  0  0
   29.8586   -1.9707    0.0000 C   0  0  0  0  0  0  0  0  0  0  0  0
   30.1022   -2.7520    0.0000 C   0  0  0  0  0  0  0  0  0  0  0  0
   30.8991   -2.9304    0.0000 C   0  0  0  0  0  0  0  0  0  0  0  0
   31.4531   -2.3284    0.0000 C   0  0  0  0  0  0  0  0  0  0  0  0
   31.2048   -1.5452    0.0000 C   0  0  0  0  0  0  0  0  0  0  0  0
   30.4086   -1.3705    0.0000 C   0  0  0  0  0  0  0  0  0  0  0  0
   31.7558   -0.9417    0.0000 O   0  0  0  0  0  0  0  0  0  0  0  0
   32.5539   -1.1170    0.0000 C   0  0  0  0  0  0  0  0  0  0  0  0
  2  1  1  0
  3  4  1  0
  4  1  1  0
  5  2  1  0
  6 16  1  0
  7  2  1  0
  8 15  1  0
  9 10  1  0
 10  8  1  0
 11  6  1  0
 12 13  1  0
 13  9  1  0
 14  7  1  0
 15 19  1  0
 12 16  1  6
 17 11  1  0
 18 22  1  0
 19  1  1  0
 20  6  1  0
 21 14  1  0
 22 21  1  0
 23 28  1  0
 24  3  2  0
 17 25  1  1
 26  8  2  0
 27  9  2  0
 28 20  1  0
 29 14  2  0
 11 30  1  6
  1 31  1  6
 32 18  1  0
  7 33  1  6
 10 34  1  1
 13 35  1  1
 18 36  1  1
 19 37  1  1
 21 38  1  6
 39 25  1  0
 40 25  1  0
 28 41  1  1
 42 32  1  0
 43 37  1  0
  2 44  1  1
  6 45  1  6
  5  3  1  0
 18 12  1  0
 17 23  1  0
  5 46  1  0
 46 47  1  0
 47 48  1  0
 48 49  2  0
 49 50  1  0
 50 55  2  0
 54 51  2  0
 51 52  1  0
 52 53  2  0
 53 50  1  0
 54 55  1  0
 55 56  1  0
 56 57  2  0
 57 58  1  0
 58 59  2  0
 59 54  1  0
 58 60  1  0
 60 61  1  0
M  END

> <chembl_id>
CHEMBL4128030

> <chembl_pref_name>
None


$$$$

     RDKit          2D

 60 64  0  0  0  0  0  0  0  0999 V2000
   34.3963  -15.2584    0.0000 C   0  0  0  0  0  0  0  0  0  0  0  0
   34.3963  -14.4412    0.0000 C   0  0  0  0  0  0  0  0  0  0  0  0
   33.1334  -14.8415    0.0000 C   0  0  0  0  0  0  0  0  0  0  0  0
   33.6163  -15.4977    0.0000 O   0  0  0  0  0  0  0  0  0  0  0  0
   33.6163  -14.1729    0.0000 N   0  0  0  0  0  0  0  0  0  0  0  0
   38.6556  -14.4412    0.0000 C   0  0  0  0  0  0  0  0  0  0  0  0
   35.0980  -14.0243    0.0000 C   0  0  0  0  0  0  0  0  0  0  0  0
   35.8161  -16.8721    0.0000 C   0  0  0  0  0  0  0  0  0  0  0  0
   36.5136  -15.6339    0.0000 C   0  0  0  0  0  0  0  0  0  0  0  0
   36.5218  -16.4511    0.0000 C   0  0  0  0  0  0  0  0  0  0  0  0
   39.3738  -14.0119    0.0000 C   0  0  0  0  0  0  0  0  0  0  0  0
   37.2193  -14.4412    0.0000 C   0  0  0  0  0  0  0  0  0  0  0  0
   37.2193  -15.2584    0.0000 C   0  0  0  0  0  0  0  0  0  0  0  0
   35.0980  -13.2071    0.0000 C   0  0  0  0  0  0  0  0  0  0  0  0
   35.1145  -16.4635    0.0000 O   0  0  0  0  0  0  0  0  0  0  0  0
   37.9375  -14.0326    0.0000 O   0  0  0  0  0  0  0  0  0  0  0  0
   40.0919  -14.4329    0.0000 C   0  0  0  0  0  0  0  0  0  0  0  0
   36.5218  -14.0243    0.0000 C   0  0  0  0  0  0  0  0  0  0  0  0
   35.0980  -15.6587    0.0000 C   0  0  0  0  0  0  0  0  0  0  0  0
   38.6680  -15.2625    0.0000 O   0  0  0  0  0  0  0  0  0  0  0  0
   35.8037  -12.7862    0.0000 C   0  0  0  0  0  0  0  0  0  0  0  0
   36.5218  -13.2071    0.0000 C   0  0  0  0  0  0  0  0  0  0  0  0
   40.0919  -15.2584    0.0000 C   0  0  0  0  0  0  0  0  0  0  0  0
   32.3121  -14.8415    0.0000 O   0  0  0  0  0  0  0  0  0  0  0  0
   40.8059  -14.0119    0.0000 N   0  0  0  0  0  0  0  0  0  0  0  0
   35.8285  -17.6976    0.0000 O   0  0  0  0  0  0  0  0  0  0  0  0
   35.8037  -15.2253    0.0000 O   0  0  0  0  0  0  0  0  0  0  0  0
   39.3738  -15.6711    0.0000 C   0  0  0  0  0  0  0  0  0  0  0  0
   34.3839  -12.7862    0.0000 O   0  0  0  0  0  0  0  0  0  0  0  0
   39.3614  -13.1947    0.0000 O   0  0  0  0  0  0  0  0  0  0  0  0
   33.9753  -15.9641    0.0000 C   0  0  0  0  0  0  0  0  0  0  0  0
   36.1009  -14.7383    0.0000 O   0  0  0  0  0  0  0  0  0  0  0  0
   35.6960  -14.2243    0.0000 C   0  0  0  0  0  0  0  0  0  0  0  0
   37.2317  -16.8473    0.0000 C   0  0  0  0  0  0  0  0  0  0  0  0
   37.9127  -15.6793    0.0000 C   0  0  0  0  0  0  0  0  0  0  0  0
   35.8037  -13.6157    0.0000 C   0  0  0  0  0  0  0  0  0  0  0  0
   34.3839  -16.0673    0.0000 C   0  0  0  0  0  0  0  0  0  0  0  0
   35.8037  -11.9690    0.0000 C   0  0  0  0  0  0  0  0  0  0  0  0
   40.8059  -13.1947    0.0000 C   0  0  0  0  0  0  0  0  0  0  0  0
   41.5158  -14.4329    0.0000 C   0  0  0  0  0  0  0  0  0  0  0  0
   39.3738  -16.4883    0.0000 C   0  0  0  0  0  0  0  0  0  0  0  0
   35.2754  -14.7301    0.0000 C   0  0  0  0  0  0  0  0  0  0  0  0
   34.3716  -16.8845    0.0000 C   0  0  0  0  0  0  0  0  0  0  0  0
   34.3963  -13.6116    0.0000 H   0  0  0  0  0  0  0  0  0  0  0  0
   38.0489  -14.9860    0.0000 H   0  0  0  0  0  0  0  0  0  0  0  0
   33.3693  -13.3939    0.0000 C   0  0  0  0  0  0  0  0  0  0  0  0
   32.5712  -13.2183    0.0000 C   0  0  0  0  0  0  0  0  0  0  0  0
   32.3242  -12.4394    0.0000 C   0  0  0  0  0  0  0  0  0  0  0  0
   31.5261  -12.2638    0.0000 C   0  0  0  0  0  0  0  0  0  0  0  0
   31.2791  -11.4848    0.0000 C   0  0  0  0  0  0  0  0  0  0  0  0
   30.7850   -9.9292    0.0000 C   0  0  0  0  0  0  0  0  0  0  0  0
   30.2329  -10.5375    0.0000 N   0  0  0  0  0  0  0  0  0  0  0  0
   30.4823  -11.3135    0.0000 C   0  0  0  0  0  0  0  0  0  0  0  0
   31.5838  -10.1054    0.0000 C   0  0  0  0  0  0  0  0  0  0  0  0
   31.8274  -10.8868    0.0000 C   0  0  0  0  0  0  0  0  0  0  0  0
   32.6242  -11.0652    0.0000 C   0  0  0  0  0  0  0  0  0  0  0  0
   33.1783  -10.4631    0.0000 C   0  0  0  0  0  0  0  0  0  0  0  0
   32.9300   -9.6800    0.0000 C   0  0  0  0  0  0  0  0  0  0  0  0
   32.1337   -9.5053    0.0000 C   0  0  0  0  0  0  0  0  0  0  0  0
   33.9761  -10.6402    0.0000 C   0  0  0  0  0  0  0  0  0  0  0  0
  2  1  1  0
  3  4  1  0
  4  1  1  0
  5  2  1  0
  6 16  1  0
  7  2  1  0
  8 15  1  0
  9 10  1  0
 10  8  1  0
 11  6  1  0
 12 13  1  0
 13  9  1  0
 14  7  1  0
 15 19  1  0
 12 16  1  6
 17 11  1  0
 18 22  1  0
 19  1  1  0
 20  6  1  0
 21 14  1  0
 22 21  1  0
 23 28  1  0
 24  3  2  0
 17 25  1  1
 26  8  2  0
 27  9  2  0
 28 20  1  0
 29 14  2  0
 11 30  1  6
  1 31  1  6
 32 18  1  0
  7 33  1  6
 10 34  1  1
 13 35  1  1
 18 36  1  1
 19 37  1  1
 21 38  1  6
 39 25  1  0
 40 25  1  0
 28 41  1  1
 42 32  1  0
 43 37  1  0
  2 44  1  1
  6 45  1  6
  5  3  1  0
 18 12  1  0
 17 23  1  0
  5 46  1  0
 46 47  1  0
 47 48  1  0
 48 49  2  0
 49 50  1  0
 50 55  2  0
 54 51  2  0
 51 52  1  0
 52 53  2  0
 53 50  1  0
 54 55  1  0
 55 56  1  0
 56 57  2  0
 57 58  1  0
 58 59  2  0
 59 54  1  0
 57 60  1  0
M  END

> <chembl_id>
CHEMBL4128589

> <chembl_pref_name>
None


$$$$

     RDKit          2D

 67 72  0  0  0  0  0  0  0  0999 V2000
   33.1994  -19.3319    0.0000 C   0  0  0  0  0  0  0  0  0  0  0  0
   33.1994  -18.5147    0.0000 C   0  0  0  0  0  0  0  0  0  0  0  0
   31.9365  -18.9151    0.0000 C   0  0  0  0  0  0  0  0  0  0  0  0
   32.4194  -19.5713    0.0000 O   0  0  0  0  0  0  0  0  0  0  0  0
   32.4194  -18.2465    0.0000 N   0  0  0  0  0  0  0  0  0  0  0  0
   37.4587  -18.5147    0.0000 C   0  0  0  0  0  0  0  0  0  0  0  0
   33.9011  -18.0979    0.0000 C   0  0  0  0  0  0  0  0  0  0  0  0
   34.6192  -20.9457    0.0000 C   0  0  0  0  0  0  0  0  0  0  0  0
   35.3167  -19.7075    0.0000 C   0  0  0  0  0  0  0  0  0  0  0  0
   35.3249  -20.5247    0.0000 C   0  0  0  0  0  0  0  0  0  0  0  0
   38.1769  -18.0855    0.0000 C   0  0  0  0  0  0  0  0  0  0  0  0
   36.0225  -18.5147    0.0000 C   0  0  0  0  0  0  0  0  0  0  0  0
   36.0225  -19.3319    0.0000 C   0  0  0  0  0  0  0  0  0  0  0  0
   33.9011  -17.2807    0.0000 C   0  0  0  0  0  0  0  0  0  0  0  0
   33.9176  -20.5371    0.0000 O   0  0  0  0  0  0  0  0  0  0  0  0
   36.7406  -18.1062    0.0000 O   0  0  0  0  0  0  0  0  0  0  0  0
   38.8950  -18.5065    0.0000 C   0  0  0  0  0  0  0  0  0  0  0  0
   35.3249  -18.0979    0.0000 C   0  0  0  0  0  0  0  0  0  0  0  0
   33.9011  -19.7323    0.0000 C   0  0  0  0  0  0  0  0  0  0  0  0
   37.4711  -19.3361    0.0000 O   0  0  0  0  0  0  0  0  0  0  0  0
   34.6068  -16.8597    0.0000 C   0  0  0  0  0  0  0  0  0  0  0  0
   35.3249  -17.2807    0.0000 C   0  0  0  0  0  0  0  0  0  0  0  0
   38.8950  -19.3319    0.0000 C   0  0  0  0  0  0  0  0  0  0  0  0
   31.1152  -18.9151    0.0000 O   0  0  0  0  0  0  0  0  0  0  0  0
   39.6090  -18.0855    0.0000 N   0  0  0  0  0  0  0  0  0  0  0  0
   34.6316  -21.7711    0.0000 O   0  0  0  0  0  0  0  0  0  0  0  0
   34.6068  -19.2989    0.0000 O   0  0  0  0  0  0  0  0  0  0  0  0
   38.1769  -19.7447    0.0000 C   0  0  0  0  0  0  0  0  0  0  0  0
   33.1870  -16.8597    0.0000 O   0  0  0  0  0  0  0  0  0  0  0  0
   38.1645  -17.2683    0.0000 O   0  0  0  0  0  0  0  0  0  0  0  0
   32.7784  -20.0377    0.0000 C   0  0  0  0  0  0  0  0  0  0  0  0
   34.9040  -18.8119    0.0000 O   0  0  0  0  0  0  0  0  0  0  0  0
   34.5325  -18.2763    0.0000 C   0  0  0  0  0  0  0  0  0  0  0  0
   36.0348  -20.9209    0.0000 C   0  0  0  0  0  0  0  0  0  0  0  0
   36.7158  -19.7529    0.0000 C   0  0  0  0  0  0  0  0  0  0  0  0
   34.6068  -17.6893    0.0000 C   0  0  0  0  0  0  0  0  0  0  0  0
   33.1870  -20.1409    0.0000 C   0  0  0  0  0  0  0  0  0  0  0  0
   34.6068  -16.0425    0.0000 C   0  0  0  0  0  0  0  0  0  0  0  0
   39.6090  -17.2683    0.0000 C   0  0  0  0  0  0  0  0  0  0  0  0
   40.3189  -18.5065    0.0000 C   0  0  0  0  0  0  0  0  0  0  0  0
   38.1769  -20.5619    0.0000 C   0  0  0  0  0  0  0  0  0  0  0  0
   34.0785  -18.8037    0.0000 C   0  0  0  0  0  0  0  0  0  0  0  0
   33.1747  -20.9581    0.0000 C   0  0  0  0  0  0  0  0  0  0  0  0
   33.1994  -17.6852    0.0000 H   0  0  0  0  0  0  0  0  0  0  0  0
   36.8520  -19.0595    0.0000 H   0  0  0  0  0  0  0  0  0  0  0  0
   32.1724  -17.4675    0.0000 C   0  0  0  0  0  0  0  0  0  0  0  0
   31.3743  -17.2919    0.0000 C   0  0  0  0  0  0  0  0  0  0  0  0
   31.1273  -16.5129    0.0000 C   0  0  0  0  0  0  0  0  0  0  0  0
   30.3292  -16.3373    0.0000 C   0  0  0  0  0  0  0  0  0  0  0  0
   30.0822  -15.5584    0.0000 C   0  0  0  0  0  0  0  0  0  0  0  0
   29.5881  -14.0028    0.0000 C   0  0  0  0  0  0  0  0  0  0  0  0
   29.0360  -14.6111    0.0000 N   0  0  0  0  0  0  0  0  0  0  0  0
   29.2854  -15.3871    0.0000 C   0  0  0  0  0  0  0  0  0  0  0  0
   30.3869  -14.1790    0.0000 C   0  0  0  0  0  0  0  0  0  0  0  0
   30.6305  -14.9604    0.0000 C   0  0  0  0  0  0  0  0  0  0  0  0
   31.4273  -15.1387    0.0000 C   0  0  0  0  0  0  0  0  0  0  0  0
   31.9814  -14.5367    0.0000 C   0  0  0  0  0  0  0  0  0  0  0  0
   31.7331  -13.7536    0.0000 C   0  0  0  0  0  0  0  0  0  0  0  0
   30.9368  -13.5789    0.0000 C   0  0  0  0  0  0  0  0  0  0  0  0
   32.2841  -13.1500    0.0000 O   0  0  0  0  0  0  0  0  0  0  0  0
   33.0822  -13.3254    0.0000 C   0  0  0  0  0  0  0  0  0  0  0  0
   33.6332  -12.7218    0.0000 C   0  0  0  0  0  0  0  0  0  0  0  0
   34.4300  -12.9001    0.0000 C   0  0  0  0  0  0  0  0  0  0  0  0
   34.9807  -12.2973    0.0000 C   0  0  0  0  0  0  0  0  0  0  0  0
   34.7337  -11.5174    0.0000 C   0  0  0  0  0  0  0  0  0  0  0  0
   33.9308  -11.3438    0.0000 C   0  0  0  0  0  0  0  0  0  0  0  0
   33.3836  -11.9479    0.0000 C   0  0  0  0  0  0  0  0  0  0  0  0
  2  1  1  0
  3  4  1  0
  4  1  1  0
  5  2  1  0
  6 16  1  0
  7  2  1  0
  8 15  1  0
  9 10  1  0
 10  8  1  0
 11  6  1  0
 12 13  1  0
 13  9  1  0
 14  7  1  0
 15 19  1  0
 12 16  1  6
 17 11  1  0
 18 22  1  0
 19  1  1  0
 20  6  1  0
 21 14  1  0
 22 21  1  0
 23 28  1  0
 24  3  2  0
 17 25  1  1
 26  8  2  0
 27  9  2  0
 28 20  1  0
 29 14  2  0
 11 30  1  6
  1 31  1  6
 32 18  1  0
  7 33  1  6
 10 34  1  1
 13 35  1  1
 18 36  1  1
 19 37  1  1
 21 38  1  6
 39 25  1  0
 40 25  1  0
 28 41  1  1
 42 32  1  0
 43 37  1  0
  2 44  1  1
  6 45  1  6
  5  3  1  0
 18 12  1  0
 17 23  1  0
  5 46  1  0
 46 47  1  0
 47 48  1  0
 48 49  2  0
 49 50  1  0
 50 55  2  0
 54 51  2  0
 51 52  1  0
 52 53  2  0
 53 50  1  0
 54 55  1  0
 55 56  1  0
 56 57  2  0
 57 58  1  0
 58 59  2  0
 59 54  1  0
 58 60  1  0
 60 61  1  0
 61 62  1  0
 62 63  2  0
 63 64  1  0
 64 65  2  0
 65 66  1  0
 66 67  2  0
 67 62  1  0
M  END

> <chembl_id>
CHEMBL4128714

> <chembl_pref_name>
None


$$$$

     RDKit          2D

 65 70  0  0  0  0  0  0  0  0999 V2000
   18.9770   -7.3134    0.0000 C   0  0  0  0  0  0  0  0  0  0  0  0
   18.9770   -6.4963    0.0000 C   0  0  0  0  0  0  0  0  0  0  0  0
   17.7141   -6.8966    0.0000 C   0  0  0  0  0  0  0  0  0  0  0  0
   18.1970   -7.5528    0.0000 O   0  0  0  0  0  0  0  0  0  0  0  0
   18.1970   -6.2280    0.0000 N   0  0  0  0  0  0  0  0  0  0  0  0
   23.2363   -6.4963    0.0000 C   0  0  0  0  0  0  0  0  0  0  0  0
   19.6786   -6.0794    0.0000 C   0  0  0  0  0  0  0  0  0  0  0  0
   20.3968   -8.9272    0.0000 C   0  0  0  0  0  0  0  0  0  0  0  0
   21.0943   -7.6890    0.0000 C   0  0  0  0  0  0  0  0  0  0  0  0
   21.1025   -8.5062    0.0000 C   0  0  0  0  0  0  0  0  0  0  0  0
   23.9544   -6.0670    0.0000 C   0  0  0  0  0  0  0  0  0  0  0  0
   21.8000   -6.4963    0.0000 C   0  0  0  0  0  0  0  0  0  0  0  0
   21.8000   -7.3134    0.0000 C   0  0  0  0  0  0  0  0  0  0  0  0
   19.6786   -5.2622    0.0000 C   0  0  0  0  0  0  0  0  0  0  0  0
   19.6951   -8.5186    0.0000 O   0  0  0  0  0  0  0  0  0  0  0  0
   22.5182   -6.0877    0.0000 O   0  0  0  0  0  0  0  0  0  0  0  0
   24.6726   -6.4880    0.0000 C   0  0  0  0  0  0  0  0  0  0  0  0
   21.1025   -6.0794    0.0000 C   0  0  0  0  0  0  0  0  0  0  0  0
   19.6786   -7.7138    0.0000 C   0  0  0  0  0  0  0  0  0  0  0  0
   23.2487   -7.3176    0.0000 O   0  0  0  0  0  0  0  0  0  0  0  0
   20.3844   -4.8412    0.0000 C   0  0  0  0  0  0  0  0  0  0  0  0
   21.1025   -5.2622    0.0000 C   0  0  0  0  0  0  0  0  0  0  0  0
   24.6726   -7.3134    0.0000 C   0  0  0  0  0  0  0  0  0  0  0  0
   16.8927   -6.8966    0.0000 O   0  0  0  0  0  0  0  0  0  0  0  0
   25.3866   -6.0670    0.0000 N   0  0  0  0  0  0  0  0  0  0  0  0
   20.4091   -9.7526    0.0000 O   0  0  0  0  0  0  0  0  0  0  0  0
   20.3844   -7.2804    0.0000 O   0  0  0  0  0  0  0  0  0  0  0  0
   23.9544   -7.7262    0.0000 C   0  0  0  0  0  0  0  0  0  0  0  0
   18.9646   -4.8412    0.0000 O   0  0  0  0  0  0  0  0  0  0  0  0
   23.9421   -5.2498    0.0000 O   0  0  0  0  0  0  0  0  0  0  0  0
   18.5560   -8.0192    0.0000 C   0  0  0  0  0  0  0  0  0  0  0  0
   20.6815   -6.7934    0.0000 O   0  0  0  0  0  0  0  0  0  0  0  0
   20.3436   -6.2794    0.0000 C   0  0  0  0  0  0  0  0  0  0  0  0
   21.8124   -8.9024    0.0000 C   0  0  0  0  0  0  0  0  0  0  0  0
   22.4934   -7.7344    0.0000 C   0  0  0  0  0  0  0  0  0  0  0  0
   20.3844   -5.6708    0.0000 C   0  0  0  0  0  0  0  0  0  0  0  0
   18.9646   -8.1224    0.0000 C   0  0  0  0  0  0  0  0  0  0  0  0
   20.3844   -4.0240    0.0000 C   0  0  0  0  0  0  0  0  0  0  0  0
   25.3866   -5.2498    0.0000 C   0  0  0  0  0  0  0  0  0  0  0  0
   26.0965   -6.4880    0.0000 C   0  0  0  0  0  0  0  0  0  0  0  0
   23.9544   -8.5434    0.0000 C   0  0  0  0  0  0  0  0  0  0  0  0
   19.8561   -6.7852    0.0000 C   0  0  0  0  0  0  0  0  0  0  0  0
   18.9522   -8.9396    0.0000 C   0  0  0  0  0  0  0  0  0  0  0  0
   18.9770   -5.6667    0.0000 H   0  0  0  0  0  0  0  0  0  0  0  0
   22.6296   -7.0411    0.0000 H   0  0  0  0  0  0  0  0  0  0  0  0
   17.9500   -5.4490    0.0000 C   0  0  0  0  0  0  0  0  0  0  0  0
   17.1519   -5.2734    0.0000 C   0  0  0  0  0  0  0  0  0  0  0  0
   16.9049   -4.4944    0.0000 C   0  0  0  0  0  0  0  0  0  0  0  0
   16.1068   -4.3188    0.0000 C   0  0  0  0  0  0  0  0  0  0  0  0
   15.8598   -3.5399    0.0000 C   0  0  0  0  0  0  0  0  0  0  0  0
   15.3656   -1.9843    0.0000 C   0  0  0  0  0  0  0  0  0  0  0  0
   14.8136   -2.5926    0.0000 N   0  0  0  0  0  0  0  0  0  0  0  0
   15.0629   -3.3686    0.0000 C   0  0  0  0  0  0  0  0  0  0  0  0
   16.1645   -2.1605    0.0000 C   0  0  0  0  0  0  0  0  0  0  0  0
   16.4081   -2.9419    0.0000 C   0  0  0  0  0  0  0  0  0  0  0  0
   17.2049   -3.1202    0.0000 C   0  0  0  0  0  0  0  0  0  0  0  0
   17.7590   -2.5182    0.0000 C   0  0  0  0  0  0  0  0  0  0  0  0
   17.5107   -1.7351    0.0000 C   0  0  0  0  0  0  0  0  0  0  0  0
   16.7144   -1.5604    0.0000 C   0  0  0  0  0  0  0  0  0  0  0  0
   18.5546   -2.6957    0.0000 C   0  0  0  0  0  0  0  0  0  0  0  0
   18.7992   -3.4766    0.0000 C   0  0  0  0  0  0  0  0  0  0  0  0
   19.5961   -3.6539    0.0000 C   0  0  0  0  0  0  0  0  0  0  0  0
   20.1493   -3.0512    0.0000 C   0  0  0  0  0  0  0  0  0  0  0  0
   19.9000   -2.2685    0.0000 C   0  0  0  0  0  0  0  0  0  0  0  0
   19.1036   -2.0949    0.0000 C   0  0  0  0  0  0  0  0  0  0  0  0
  2  1  1  0
  3  4  1  0
  4  1  1  0
  5  2  1  0
  6 16  1  0
  7  2  1  0
  8 15  1  0
  9 10  1  0
 10  8  1  0
 11  6  1  0
 12 13  1  0
 13  9  1  0
 14  7  1  0
 15 19  1  0
 12 16  1  6
 17 11  1  0
 18 22  1  0
 19  1  1  0
 20  6  1  0
 21 14  1  0
 22 21  1  0
 23 28  1  0
 24  3  2  0
 17 25  1  1
 26  8  2  0
 27  9  2  0
 28 20  1  0
 29 14  2  0
 11 30  1  6
  1 31  1  6
 32 18  1  0
  7 33  1  6
 10 34  1  1
 13 35  1  1
 18 36  1  1
 19 37  1  1
 21 38  1  6
 39 25  1  0
 40 25  1  0
 28 41  1  1
 42 32  1  0
 43 37  1  0
  2 44  1  1
  6 45  1  6
  5  3  1  0
 18 12  1  0
 17 23  1  0
  5 46  1  0
 46 47  1  0
 47 48  1  0
 48 49  2  0
 49 50  1  0
 50 55  2  0
 54 51  2  0
 51 52  1  0
 52 53  2  0
 53 50  1  0
 54 55  1  0
 55 56  1  0
 56 57  2  0
 57 58  1  0
 58 59  2  0
 59 54  1  0
 60 61  2  0
 61 62  1  0
 62 63  2  0
 63 64  1  0
 64 65  2  0
 65 60  1  0
 57 60  1  0
M  END

> <chembl_id>
CHEMBL4128729

> <chembl_pref_name>
None


$$$$

     RDKit          2D

 61 65  0  0  0  0  0  0  0  0999 V2000
    6.1826   -6.7893    0.0000 C   0  0  0  0  0  0  0  0  0  0  0  0
    6.1826   -5.9721    0.0000 C   0  0  0  0  0  0  0  0  0  0  0  0
    4.9197   -6.3724    0.0000 C   0  0  0  0  0  0  0  0  0  0  0  0
    5.4025   -7.0287    0.0000 O   0  0  0  0  0  0  0  0  0  0  0  0
    5.4025   -5.7038    0.0000 N   0  0  0  0  0  0  0  0  0  0  0  0
   10.4419   -5.9721    0.0000 C   0  0  0  0  0  0  0  0  0  0  0  0
    6.8842   -5.5552    0.0000 C   0  0  0  0  0  0  0  0  0  0  0  0
    7.6024   -8.4030    0.0000 C   0  0  0  0  0  0  0  0  0  0  0  0
    8.2999   -7.1649    0.0000 C   0  0  0  0  0  0  0  0  0  0  0  0
    8.3081   -7.9821    0.0000 C   0  0  0  0  0  0  0  0  0  0  0  0
   11.1600   -5.5429    0.0000 C   0  0  0  0  0  0  0  0  0  0  0  0
    9.0056   -5.9721    0.0000 C   0  0  0  0  0  0  0  0  0  0  0  0
    9.0056   -6.7893    0.0000 C   0  0  0  0  0  0  0  0  0  0  0  0
    6.8842   -4.7381    0.0000 C   0  0  0  0  0  0  0  0  0  0  0  0
    6.9007   -7.9944    0.0000 O   0  0  0  0  0  0  0  0  0  0  0  0
    9.7238   -5.5635    0.0000 O   0  0  0  0  0  0  0  0  0  0  0  0
   11.8782   -5.9638    0.0000 C   0  0  0  0  0  0  0  0  0  0  0  0
    8.3081   -5.5552    0.0000 C   0  0  0  0  0  0  0  0  0  0  0  0
    6.8842   -7.1896    0.0000 C   0  0  0  0  0  0  0  0  0  0  0  0
   10.4543   -6.7934    0.0000 O   0  0  0  0  0  0  0  0  0  0  0  0
    7.5900   -4.3171    0.0000 C   0  0  0  0  0  0  0  0  0  0  0  0
    8.3081   -4.7381    0.0000 C   0  0  0  0  0  0  0  0  0  0  0  0
   11.8782   -6.7893    0.0000 C   0  0  0  0  0  0  0  0  0  0  0  0
    4.0983   -6.3724    0.0000 O   0  0  0  0  0  0  0  0  0  0  0  0
   12.5922   -5.5429    0.0000 N   0  0  0  0  0  0  0  0  0  0  0  0
    7.6147   -9.2285    0.0000 O   0  0  0  0  0  0  0  0  0  0  0  0
    7.5900   -6.7563    0.0000 O   0  0  0  0  0  0  0  0  0  0  0  0
   11.1600   -7.2020    0.0000 C   0  0  0  0  0  0  0  0  0  0  0  0
    6.1702   -4.3171    0.0000 O   0  0  0  0  0  0  0  0  0  0  0  0
   11.1476   -4.7257    0.0000 O   0  0  0  0  0  0  0  0  0  0  0  0
    5.7616   -7.4950    0.0000 C   0  0  0  0  0  0  0  0  0  0  0  0
    7.8871   -6.2693    0.0000 O   0  0  0  0  0  0  0  0  0  0  0  0
    7.5157   -5.7218    0.0000 C   0  0  0  0  0  0  0  0  0  0  0  0
    9.0180   -8.3783    0.0000 C   0  0  0  0  0  0  0  0  0  0  0  0
    9.6990   -7.2103    0.0000 C   0  0  0  0  0  0  0  0  0  0  0  0
    7.5900   -5.1467    0.0000 C   0  0  0  0  0  0  0  0  0  0  0  0
    6.1702   -7.5982    0.0000 C   0  0  0  0  0  0  0  0  0  0  0  0
    7.5900   -3.4999    0.0000 C   0  0  0  0  0  0  0  0  0  0  0  0
   12.5922   -4.7257    0.0000 C   0  0  0  0  0  0  0  0  0  0  0  0
   13.3021   -5.9638    0.0000 C   0  0  0  0  0  0  0  0  0  0  0  0
   11.1600   -8.0192    0.0000 C   0  0  0  0  0  0  0  0  0  0  0  0
    7.0617   -6.2610    0.0000 C   0  0  0  0  0  0  0  0  0  0  0  0
    6.1578   -8.4154    0.0000 C   0  0  0  0  0  0  0  0  0  0  0  0
    6.1826   -5.1425    0.0000 H   0  0  0  0  0  0  0  0  0  0  0  0
    9.8352   -6.5169    0.0000 H   0  0  0  0  0  0  0  0  0  0  0  0
    5.1556   -4.9249    0.0000 C   0  0  0  0  0  0  0  0  0  0  0  0
    4.3575   -4.7493    0.0000 C   0  0  0  0  0  0  0  0  0  0  0  0
    4.1105   -3.9703    0.0000 C   0  0  0  0  0  0  0  0  0  0  0  0
    3.3124   -3.7947    0.0000 C   0  0  0  0  0  0  0  0  0  0  0  0
    3.0654   -3.0157    0.0000 C   0  0  0  0  0  0  0  0  0  0  0  0
    2.5712   -1.4602    0.0000 C   0  0  0  0  0  0  0  0  0  0  0  0
    2.0192   -2.0684    0.0000 N   0  0  0  0  0  0  0  0  0  0  0  0
    2.2685   -2.8444    0.0000 C   0  0  0  0  0  0  0  0  0  0  0  0
    3.3701   -1.6364    0.0000 C   0  0  0  0  0  0  0  0  0  0  0  0
    3.6137   -2.4177    0.0000 C   0  0  0  0  0  0  0  0  0  0  0  0
    4.4105   -2.5961    0.0000 C   0  0  0  0  0  0  0  0  0  0  0  0
    4.9646   -1.9940    0.0000 C   0  0  0  0  0  0  0  0  0  0  0  0
    4.7163   -1.2109    0.0000 C   0  0  0  0  0  0  0  0  0  0  0  0
    3.9200   -1.0362    0.0000 C   0  0  0  0  0  0  0  0  0  0  0  0
    5.7623   -2.1711    0.0000 O   0  0  0  0  0  0  0  0  0  0  0  0
    6.3146   -1.5688    0.0000 C   0  0  0  0  0  0  0  0  0  0  0  0
  2  1  1  0
  3  4  1  0
  4  1  1  0
  5  2  1  0
  6 16  1  0
  7  2  1  0
  8 15  1  0
  9 10  1  0
 10  8  1  0
 11  6  1  0
 12 13  1  0
 13  9  1  0
 14  7  1  0
 15 19  1  0
 12 16  1  6
 17 11  1  0
 18 22  1  0
 19  1  1  0
 20  6  1  0
 21 14  1  0
 22 21  1  0
 23 28  1  0
 24  3  2  0
 17 25  1  1
 26  8  2  0
 27  9  2  0
 28 20  1  0
 29 14  2  0
 11 30  1  6
  1 31  1  6
 32 18  1  0
  7 33  1  6
 10 34  1  1
 13 35  1  1
 18 36  1  1
 19 37  1  1
 21 38  1  6
 39 25  1  0
 40 25  1  0
 28 41  1  1
 42 32  1  0
 43 37  1  0
  2 44  1  1
  6 45  1  6
  5  3  1  0
 18 12  1  0
 17 23  1  0
  5 46  1  0
 46 47  1  0
 47 48  1  0
 48 49  2  0
 49 50  1  0
 50 55  2  0
 54 51  2  0
 51 52  1  0
 52 53  2  0
 53 50  1  0
 54 55  1  0
 55 56  1  0
 56 57  2  0
 57 58  1  0
 58 59  2  0
 59 54  1  0
 57 60  1  0
 60 61  1  0
M  END

> <chembl_id>
CHEMBL4129953

> <chembl_pref_name>
None


$$$$
 
     RDKit          2D

 59 62  0  0  0  0  0  0  0  0999 V2000
   16.3232  -27.0705    0.0000 F   0  0  0  0  0  0  0  0  0  0  0  0
   15.9187  -26.3647    0.0000 C   0  0  0  0  0  0  0  0  0  0  0  0
   15.5098  -27.0679    0.0000 C   0  0  0  0  0  0  0  0  0  0  0  0
   14.4824  -23.8801    0.0000 C   0  0  0  0  0  0  0  0  0  0  0  0
   15.1965  -23.4798    0.0000 C   0  0  0  0  0  0  0  0  0  0  0  0
   18.5890  -25.4196    0.0000 C   0  0  0  0  0  0  0  0  0  0  0  0
   15.1965  -25.9520    0.0000 C   0  0  0  0  0  0  0  0  0  0  0  0
   16.6327  -25.9520    0.0000 C   0  0  0  0  0  0  0  0  0  0  0  0
   19.4145  -25.3948    0.0000 C   0  0  0  0  0  0  0  0  0  0  0  0
   17.3467  -24.7056    0.0000 C   0  0  0  0  0  0  0  0  0  0  0  0
   13.7849  -22.8814    0.0000 C   0  0  0  0  0  0  0  0  0  0  0  0
   15.1965  -22.6544    0.0000 C   0  0  0  0  0  0  0  0  0  0  0  0
   14.6104  -22.8937    0.0000 O   0  0  0  0  0  0  0  0  0  0  0  0
   16.6245  -25.1266    0.0000 C   0  0  0  0  0  0  0  0  0  0  0  0
   13.7849  -23.6077    0.0000 O   0  0  0  0  0  0  0  0  0  0  0  0
   15.1965  -25.1266    0.0000 O   0  0  0  0  0  0  0  0  0  0  0  0
   15.9105  -22.2416    0.0000 C   0  0  0  0  0  0  0  0  0  0  0  0
   18.1639  -24.7056    0.0000 O   0  0  0  0  0  0  0  0  0  0  0  0
   19.8520  -26.0965    0.0000 C   0  0  0  0  0  0  0  0  0  0  0  0
   17.3467  -23.8925    0.0000 C   0  0  0  0  0  0  0  0  0  0  0  0
   14.4866  -24.7180    0.0000 C   0  0  0  0  0  0  0  0  0  0  0  0
   18.1970  -26.1584    0.0000 O   0  0  0  0  0  0  0  0  0  0  0  0
   16.6245  -22.6544    0.0000 C   0  0  0  0  0  0  0  0  0  0  0  0
   16.6245  -23.4798    0.0000 C   0  0  0  0  0  0  0  0  0  0  0  0
   19.4640  -26.8270    0.0000 C   0  0  0  0  0  0  0  0  0  0  0  0
   20.6774  -26.0717    0.0000 N   0  0  0  0  0  0  0  0  0  0  0  0
   14.4866  -26.3689    0.0000 O   0  0  0  0  0  0  0  0  0  0  0  0
   17.3509  -26.3565    0.0000 O   0  0  0  0  0  0  0  0  0  0  0  0
   18.6386  -26.8559    0.0000 C   0  0  0  0  0  0  0  0  0  0  0  0
   13.2855  -22.3820    0.0000 O   0  0  0  0  0  0  0  0  0  0  0  0
   15.9105  -21.4162    0.0000 N   0  0  0  0  0  0  0  0  0  0  0  0
   19.8024  -24.6643    0.0000 O   0  0  0  0  0  0  0  0  0  0  0  0
   17.7512  -23.1703    0.0000 O   0  0  0  0  0  0  0  0  0  0  0  0
   13.8840  -24.4703    0.0000 C   0  0  0  0  0  0  0  0  0  0  0  0
   14.7837  -21.9280    0.0000 C   0  0  0  0  0  0  0  0  0  0  0  0
   15.9105  -24.7056    0.0000 C   0  0  0  0  0  0  0  0  0  0  0  0
   18.1639  -23.8925    0.0000 C   0  0  0  0  0  0  0  0  0  0  0  0
   13.7726  -25.1307    0.0000 C   0  0  0  0  0  0  0  0  0  0  0  0
   17.0372  -21.9280    0.0000 C   0  0  0  0  0  0  0  0  0  0  0  0
   21.0654  -25.3453    0.0000 C   0  0  0  0  0  0  0  0  0  0  0  0
   21.1149  -26.7692    0.0000 C   0  0  0  0  0  0  0  0  0  0  0  0
   18.2506  -27.5823    0.0000 C   0  0  0  0  0  0  0  0  0  0  0  0
   17.1239  -25.5063    0.0000 H   0  0  0  0  0  0  0  0  0  0  0  0
   15.7743  -22.8937    0.0000 H   0  0  0  0  0  0  0  0  0  0  0  0
   13.7730  -25.9479    0.0000 C   0  0  0  0  0  0  0  0  0  0  0  0
   18.5683  -23.1595    0.0000 C   0  0  0  0  0  0  0  0  0  0  0  0
   18.9676  -22.4465    0.0000 C   0  0  0  0  0  0  0  0  0  0  0  0
   19.7847  -22.4358    0.0000 C   0  0  0  0  0  0  0  0  0  0  0  0
   20.1840  -21.7228    0.0000 C   0  0  0  0  0  0  0  0  0  0  0  0
   16.6182  -21.0076    0.0000 O   0  0  0  0  0  0  0  0  0  0  0  0
   16.6182  -20.1904    0.0000 C   0  0  0  0  0  0  0  0  0  0  0  0
   21.0010  -21.7167    0.0000 C   0  0  0  0  0  0  0  0  0  0  0  0
   21.4003  -21.0046    0.0000 C   0  0  0  0  0  0  0  0  0  0  0  0
   20.9824  -20.3013    0.0000 C   0  0  0  0  0  0  0  0  0  0  0  0
   20.1610  -20.3147    0.0000 N   0  0  0  0  0  0  0  0  0  0  0  0
   19.7655  -21.0274    0.0000 C   0  0  0  0  0  0  0  0  0  0  0  0
   22.2174  -20.9942    0.0000 C   0  0  0  0  0  0  0  0  0  0  0  0
   22.6349  -21.6967    0.0000 O   0  0  0  0  0  0  0  0  0  0  0  0
   22.6170  -20.2814    0.0000 O   0  0  0  0  0  0  0  0  0  0  0  0
  2  1  1  0
  2  3  1  1
  5  4  1  0
  6 18  1  1
  7 16  1  0
  8  2  1  0
  2  7  1  0
  9  6  1  0
 10 14  1  0
 11 15  1  0
 12  5  1  0
 13  5  1  0
 14  8  1  0
 15  4  1  0
 16 21  1  0
 17 12  1  0
 18 10  1  0
 19  9  1  0
 20 24  1  0
 21  4  1  0
 22  6  1  0
 23 17  1  0
 24 23  1  0
 25 29  1  0
 19 26  1  1
 27  7  2  0
 28  8  2  0
 29 22  1  0
 30 11  2  0
 31 17  2  0
  9 32  1  6
 20 33  1  1
  4 34  1  6
 12 35  1  1
 14 36  1  6
 37 20  1  0
 21 38  1  6
 23 39  1  6
 40 26  1  0
 41 26  1  0
 29 42  1  1
 10 43  1  1
  5 44  1  1
 13 11  1  0
 20 10  1  0
 25 19  1  0
 38 45  1  0
 33 46  1  0
 46 47  1  0
 47 48  2  0
 48 49  1  0
 31 50  1  0
 50 51  1  0
 49 52  2  0
 52 53  1  0
 53 54  2  0
 54 55  1  0
 55 56  2  0
 56 49  1  0
 53 57  1  0
 57 58  1  0
 57 59  2  0
M  END

> <chembl_id>
CHEMBL4458095

> <chembl_pref_name>
None


$$$$
 
     RDKit          2D

 59 62  0  0  0  0  0  0  0  0999 V2000
    3.9126  -26.0923    0.0000 F   0  0  0  0  0  0  0  0  0  0  0  0
    3.5081  -25.3866    0.0000 C   0  0  0  0  0  0  0  0  0  0  0  0
    3.0992  -26.0897    0.0000 C   0  0  0  0  0  0  0  0  0  0  0  0
    2.0719  -22.9020    0.0000 C   0  0  0  0  0  0  0  0  0  0  0  0
    2.7859  -22.5017    0.0000 C   0  0  0  0  0  0  0  0  0  0  0  0
    6.1785  -24.4414    0.0000 C   0  0  0  0  0  0  0  0  0  0  0  0
    2.7859  -24.9739    0.0000 C   0  0  0  0  0  0  0  0  0  0  0  0
    4.2222  -24.9739    0.0000 C   0  0  0  0  0  0  0  0  0  0  0  0
    7.0039  -24.4167    0.0000 C   0  0  0  0  0  0  0  0  0  0  0  0
    4.9362  -23.7274    0.0000 C   0  0  0  0  0  0  0  0  0  0  0  0
    1.3744  -21.9032    0.0000 C   0  0  0  0  0  0  0  0  0  0  0  0
    2.7859  -21.6762    0.0000 C   0  0  0  0  0  0  0  0  0  0  0  0
    2.1998  -21.9156    0.0000 O   0  0  0  0  0  0  0  0  0  0  0  0
    4.2139  -24.1484    0.0000 C   0  0  0  0  0  0  0  0  0  0  0  0
    1.3744  -22.6296    0.0000 O   0  0  0  0  0  0  0  0  0  0  0  0
    2.7859  -24.1484    0.0000 O   0  0  0  0  0  0  0  0  0  0  0  0
    3.4999  -21.2635    0.0000 C   0  0  0  0  0  0  0  0  0  0  0  0
    5.7534  -23.7274    0.0000 O   0  0  0  0  0  0  0  0  0  0  0  0
    7.4414  -25.1183    0.0000 C   0  0  0  0  0  0  0  0  0  0  0  0
    4.9362  -22.9144    0.0000 C   0  0  0  0  0  0  0  0  0  0  0  0
    2.0760  -23.7398    0.0000 C   0  0  0  0  0  0  0  0  0  0  0  0
    5.7864  -25.1802    0.0000 O   0  0  0  0  0  0  0  0  0  0  0  0
    4.2139  -21.6762    0.0000 C   0  0  0  0  0  0  0  0  0  0  0  0
    4.2139  -22.5017    0.0000 C   0  0  0  0  0  0  0  0  0  0  0  0
    7.0534  -25.8488    0.0000 C   0  0  0  0  0  0  0  0  0  0  0  0
    8.2668  -25.0935    0.0000 N   0  0  0  0  0  0  0  0  0  0  0  0
    2.0760  -25.3907    0.0000 O   0  0  0  0  0  0  0  0  0  0  0  0
    4.9403  -25.3783    0.0000 O   0  0  0  0  0  0  0  0  0  0  0  0
    6.2280  -25.8777    0.0000 C   0  0  0  0  0  0  0  0  0  0  0  0
    0.8750  -21.4038    0.0000 O   0  0  0  0  0  0  0  0  0  0  0  0
    3.4999  -20.4380    0.0000 N   0  0  0  0  0  0  0  0  0  0  0  0
    7.3919  -23.6862    0.0000 O   0  0  0  0  0  0  0  0  0  0  0  0
    5.3406  -22.1921    0.0000 O   0  0  0  0  0  0  0  0  0  0  0  0
    1.4734  -23.4922    0.0000 C   0  0  0  0  0  0  0  0  0  0  0  0
    2.3732  -20.9498    0.0000 C   0  0  0  0  0  0  0  0  0  0  0  0
    3.4999  -23.7274    0.0000 C   0  0  0  0  0  0  0  0  0  0  0  0
    5.7534  -22.9144    0.0000 C   0  0  0  0  0  0  0  0  0  0  0  0
    1.3620  -24.1525    0.0000 C   0  0  0  0  0  0  0  0  0  0  0  0
    4.6266  -20.9498    0.0000 C   0  0  0  0  0  0  0  0  0  0  0  0
    8.6548  -24.3672    0.0000 C   0  0  0  0  0  0  0  0  0  0  0  0
    8.7043  -25.7911    0.0000 C   0  0  0  0  0  0  0  0  0  0  0  0
    5.8400  -26.6041    0.0000 C   0  0  0  0  0  0  0  0  0  0  0  0
    4.7133  -24.5281    0.0000 H   0  0  0  0  0  0  0  0  0  0  0  0
    3.3637  -21.9156    0.0000 H   0  0  0  0  0  0  0  0  0  0  0  0
    1.3624  -24.9697    0.0000 C   0  0  0  0  0  0  0  0  0  0  0  0
    6.1578  -22.1814    0.0000 C   0  0  0  0  0  0  0  0  0  0  0  0
    6.5570  -21.4684    0.0000 C   0  0  0  0  0  0  0  0  0  0  0  0
    7.3742  -21.4577    0.0000 C   0  0  0  0  0  0  0  0  0  0  0  0
    7.7734  -20.7447    0.0000 C   0  0  0  0  0  0  0  0  0  0  0  0
    4.2076  -20.0294    0.0000 O   0  0  0  0  0  0  0  0  0  0  0  0
    4.2076  -19.2122    0.0000 C   0  0  0  0  0  0  0  0  0  0  0  0
    8.5905  -20.7386    0.0000 C   0  0  0  0  0  0  0  0  0  0  0  0
    8.9897  -20.0264    0.0000 C   0  0  0  0  0  0  0  0  0  0  0  0
    8.5718  -19.3231    0.0000 C   0  0  0  0  0  0  0  0  0  0  0  0
    7.7505  -19.3365    0.0000 N   0  0  0  0  0  0  0  0  0  0  0  0
    7.3550  -20.0492    0.0000 C   0  0  0  0  0  0  0  0  0  0  0  0
    9.8068  -20.0161    0.0000 C   0  0  0  0  0  0  0  0  0  0  0  0
   10.2243  -20.7186    0.0000 N   0  0  0  0  0  0  0  0  0  0  0  0
   10.2064  -19.3033    0.0000 O   0  0  0  0  0  0  0  0  0  0  0  0
  2  1  1  0
  2  3  1  1
  5  4  1  0
  6 18  1  1
  7 16  1  0
  8  2  1  0
  2  7  1  0
  9  6  1  0
 10 14  1  0
 11 15  1  0
 12  5  1  0
 13  5  1  0
 14  8  1  0
 15  4  1  0
 16 21  1  0
 17 12  1  0
 18 10  1  0
 19  9  1  0
 20 24  1  0
 21  4  1  0
 22  6  1  0
 23 17  1  0
 24 23  1  0
 25 29  1  0
 19 26  1  1
 27  7  2  0
 28  8  2  0
 29 22  1  0
 30 11  2  0
 31 17  2  0
  9 32  1  6
 20 33  1  1
  4 34  1  6
 12 35  1  1
 14 36  1  6
 37 20  1  0
 21 38  1  6
 23 39  1  6
 40 26  1  0
 41 26  1  0
 29 42  1  1
 10 43  1  1
  5 44  1  1
 13 11  1  0
 20 10  1  0
 25 19  1  0
 38 45  1  0
 33 46  1  0
 46 47  1  0
 47 48  2  0
 48 49  1  0
 31 50  1  0
 50 51  1  0
 49 52  2  0
 52 53  1  0
 53 54  2  0
 54 55  1  0
 55 56  2  0
 56 49  1  0
 53 57  1  0
 57 58  1  0
 57 59  2  0
M  END

> <chembl_id>
CHEMBL4465032

> <chembl_pref_name>
None


$$$$
 
     RDKit          2D

 63 67  0  0  0  0  0  0  0  0999 V2000
   28.9071  -27.0540    0.0000 F   0  0  0  0  0  0  0  0  0  0  0  0
   28.5026  -26.3482    0.0000 C   0  0  0  0  0  0  0  0  0  0  0  0
   28.0937  -27.0514    0.0000 C   0  0  0  0  0  0  0  0  0  0  0  0
   27.0664  -23.8636    0.0000 C   0  0  0  0  0  0  0  0  0  0  0  0
   27.7804  -23.4633    0.0000 C   0  0  0  0  0  0  0  0  0  0  0  0
   31.1730  -25.4031    0.0000 C   0  0  0  0  0  0  0  0  0  0  0  0
   27.7804  -25.9355    0.0000 C   0  0  0  0  0  0  0  0  0  0  0  0
   29.2167  -25.9355    0.0000 C   0  0  0  0  0  0  0  0  0  0  0  0
   31.9984  -25.3783    0.0000 C   0  0  0  0  0  0  0  0  0  0  0  0
   29.9307  -24.6891    0.0000 C   0  0  0  0  0  0  0  0  0  0  0  0
   26.3689  -22.8648    0.0000 C   0  0  0  0  0  0  0  0  0  0  0  0
   27.7804  -22.6378    0.0000 C   0  0  0  0  0  0  0  0  0  0  0  0
   27.1943  -22.8772    0.0000 O   0  0  0  0  0  0  0  0  0  0  0  0
   29.2084  -25.1101    0.0000 C   0  0  0  0  0  0  0  0  0  0  0  0
   26.3689  -23.5912    0.0000 O   0  0  0  0  0  0  0  0  0  0  0  0
   27.7804  -25.1101    0.0000 O   0  0  0  0  0  0  0  0  0  0  0  0
   28.4944  -22.2251    0.0000 C   0  0  0  0  0  0  0  0  0  0  0  0
   30.7479  -24.6891    0.0000 O   0  0  0  0  0  0  0  0  0  0  0  0
   32.4359  -26.0800    0.0000 C   0  0  0  0  0  0  0  0  0  0  0  0
   29.9307  -23.8760    0.0000 C   0  0  0  0  0  0  0  0  0  0  0  0
   27.0705  -24.7015    0.0000 C   0  0  0  0  0  0  0  0  0  0  0  0
   30.7809  -26.1419    0.0000 O   0  0  0  0  0  0  0  0  0  0  0  0
   29.2084  -22.6378    0.0000 C   0  0  0  0  0  0  0  0  0  0  0  0
   29.2084  -23.4633    0.0000 C   0  0  0  0  0  0  0  0  0  0  0  0
   32.0479  -26.8105    0.0000 C   0  0  0  0  0  0  0  0  0  0  0  0
   33.2613  -26.0552    0.0000 N   0  0  0  0  0  0  0  0  0  0  0  0
   27.0705  -26.3524    0.0000 O   0  0  0  0  0  0  0  0  0  0  0  0
   29.9348  -26.3400    0.0000 O   0  0  0  0  0  0  0  0  0  0  0  0
   31.2225  -26.8394    0.0000 C   0  0  0  0  0  0  0  0  0  0  0  0
   25.8695  -22.3655    0.0000 O   0  0  0  0  0  0  0  0  0  0  0  0
   28.4944  -21.3997    0.0000 N   0  0  0  0  0  0  0  0  0  0  0  0
   32.3864  -24.6478    0.0000 O   0  0  0  0  0  0  0  0  0  0  0  0
   30.3351  -23.1538    0.0000 O   0  0  0  0  0  0  0  0  0  0  0  0
   26.4679  -24.4538    0.0000 C   0  0  0  0  0  0  0  0  0  0  0  0
   27.3677  -21.9115    0.0000 C   0  0  0  0  0  0  0  0  0  0  0  0
   28.4944  -24.6891    0.0000 C   0  0  0  0  0  0  0  0  0  0  0  0
   30.7479  -23.8760    0.0000 C   0  0  0  0  0  0  0  0  0  0  0  0
   26.3565  -25.1142    0.0000 C   0  0  0  0  0  0  0  0  0  0  0  0
   29.6211  -21.9115    0.0000 C   0  0  0  0  0  0  0  0  0  0  0  0
   33.6493  -25.3288    0.0000 C   0  0  0  0  0  0  0  0  0  0  0  0
   33.6988  -26.7527    0.0000 C   0  0  0  0  0  0  0  0  0  0  0  0
   30.8345  -27.5658    0.0000 C   0  0  0  0  0  0  0  0  0  0  0  0
   29.7078  -25.4898    0.0000 H   0  0  0  0  0  0  0  0  0  0  0  0
   28.3582  -22.8772    0.0000 H   0  0  0  0  0  0  0  0  0  0  0  0
   26.3569  -25.9314    0.0000 C   0  0  0  0  0  0  0  0  0  0  0  0
   31.1523  -23.1430    0.0000 C   0  0  0  0  0  0  0  0  0  0  0  0
   31.5515  -22.4300    0.0000 C   0  0  0  0  0  0  0  0  0  0  0  0
   32.3687  -22.4193    0.0000 C   0  0  0  0  0  0  0  0  0  0  0  0
   32.7679  -21.7063    0.0000 C   0  0  0  0  0  0  0  0  0  0  0  0
   29.2021  -20.9911    0.0000 O   0  0  0  0  0  0  0  0  0  0  0  0
   29.2021  -20.1739    0.0000 C   0  0  0  0  0  0  0  0  0  0  0  0
   33.5850  -21.7002    0.0000 C   0  0  0  0  0  0  0  0  0  0  0  0
   33.9842  -20.9881    0.0000 C   0  0  0  0  0  0  0  0  0  0  0  0
   32.3495  -21.0109    0.0000 C   0  0  0  0  0  0  0  0  0  0  0  0
   32.7457  -20.3012    0.0000 C   0  0  0  0  0  0  0  0  0  0  0  0
   33.5650  -20.2869    0.0000 C   0  0  0  0  0  0  0  0  0  0  0  0
   33.9606  -19.5713    0.0000 N   0  0  0  0  0  0  0  0  0  0  0  0
   33.5379  -18.8695    0.0000 C   0  0  0  0  0  0  0  0  0  0  0  0
   32.7155  -18.8878    0.0000 C   0  0  0  0  0  0  0  0  0  0  0  0
   32.3236  -19.6039    0.0000 C   0  0  0  0  0  0  0  0  0  0  0  0
   32.2910  -18.1895    0.0000 C   0  0  0  0  0  0  0  0  0  0  0  0
   32.6835  -17.4728    0.0000 O   0  0  0  0  0  0  0  0  0  0  0  0
   31.4740  -18.2080    0.0000 O   0  0  0  0  0  0  0  0  0  0  0  0
  2  1  1  0
  2  3  1  1
  5  4  1  0
  6 18  1  1
  7 16  1  0
  8  2  1  0
  2  7  1  0
  9  6  1  0
 10 14  1  0
 11 15  1  0
 12  5  1  0
 13  5  1  0
 14  8  1  0
 15  4  1  0
 16 21  1  0
 17 12  1  0
 18 10  1  0
 19  9  1  0
 20 24  1  0
 21  4  1  0
 22  6  1  0
 23 17  1  0
 24 23  1  0
 25 29  1  0
 19 26  1  1
 27  7  2  0
 28  8  2  0
 29 22  1  0
 30 11  2  0
 31 17  2  0
  9 32  1  6
 20 33  1  1
  4 34  1  6
 12 35  1  1
 14 36  1  6
 37 20  1  0
 21 38  1  6
 23 39  1  6
 40 26  1  0
 41 26  1  0
 29 42  1  1
 10 43  1  1
  5 44  1  1
 13 11  1  0
 20 10  1  0
 25 19  1  0
 38 45  1  0
 33 46  1  0
 46 47  1  0
 47 48  2  0
 48 49  1  0
 31 50  1  0
 50 51  1  0
 49 52  2  0
 52 53  1  0
 53 56  2  0
 54 49  1  0
 54 55  2  0
 55 56  1  0
 56 57  1  0
 57 58  2  0
 58 59  1  0
 59 60  2  0
 60 55  1  0
 59 61  1  0
 61 62  1  0
 61 63  2  0
M  END

> <chembl_id>
CHEMBL4560820

> <chembl_pref_name>
None


$$$$

     RDKit          2D

 73 79  0  0  0  0  0  0  0  0999 V2000
   -2.2661  -12.4186    0.0000 C   0  0  0  0  0  0  0  0  0  0  0  0
   -2.4775  -13.2172    0.0000 C   0  0  0  0  0  0  0  0  0  0  0  0
   -1.8844  -13.7921    0.0000 N   0  0  0  0  0  0  0  0  0  0  0  0
   -1.4770  -12.1939    0.0000 C   0  0  0  0  0  0  0  0  0  0  0  0
    0.3001  -13.4910    0.0000 C   0  0  0  0  0  0  0  0  0  0  0  0
   -0.0314  -12.7042    0.0000 N   0  0  0  0  0  0  0  0  0  0  0  0
   -1.0852  -13.5745    0.0000 C   0  0  0  0  0  0  0  0  0  0  0  0
   -0.8905  -12.7628    0.0000 C   0  0  0  0  0  0  0  0  0  0  0  0
    1.1076  -13.6554    0.0000 S   0  0  0  0  0  0  0  0  0  0  0  0
   -3.2696  -13.4396    0.0000 O   0  0  0  0  0  0  0  0  0  0  0  0
   -3.4777  -14.2376    0.0000 C   0  0  0  0  0  0  0  0  0  0  0  0
    9.2385  -16.2789    0.0000 C   0  0  0  0  0  0  0  0  0  0  0  0
    8.5158  -16.6773    0.0000 C   0  0  0  0  0  0  0  0  0  0  0  0
    8.5143  -17.5015    0.0000 O   0  0  0  0  0  0  0  0  0  0  0  0
    9.2135  -17.9208    0.0000 C   0  0  0  0  0  0  0  0  0  0  0  0
    9.9361  -17.5224    0.0000 C   0  0  0  0  0  0  0  0  0  0  0  0
    9.9481  -16.6917    0.0000 C   0  0  0  0  0  0  0  0  0  0  0  0
    9.2054  -18.7458    0.0000 C   0  0  0  0  0  0  0  0  0  0  0  0
    7.8101  -16.2586    0.0000 O   0  0  0  0  0  0  0  0  0  0  0  0
   10.6688  -16.2896    0.0000 N   0  0  0  0  0  0  0  0  0  0  0  0
   11.3791  -16.7121    0.0000 C   0  0  0  0  0  0  0  0  0  0  0  0
   10.6832  -15.4639    0.0000 C   0  0  0  0  0  0  0  0  0  0  0  0
    4.2158  -16.6686    0.0000 C   0  0  0  0  0  0  0  0  0  0  0  0
    4.2082  -17.5007    0.0000 C   0  0  0  0  0  0  0  0  0  0  0  0
    4.9608  -16.2678    0.0000 C   0  0  0  0  0  0  0  0  0  0  0  0
    4.9618  -15.4469    0.0000 C   0  0  0  0  0  0  0  0  0  0  0  0
    5.6727  -15.0340    0.0000 C   0  0  0  0  0  0  0  0  0  0  0  0
    6.3859  -15.4474    0.0000 C   0  0  0  0  0  0  0  0  0  0  0  0
    6.3857  -16.2682    0.0000 C   0  0  0  0  0  0  0  0  0  0  0  0
    7.0985  -16.6804    0.0000 C   0  0  0  0  0  0  0  0  0  0  0  0
    7.0985  -17.5021    0.0000 C   0  0  0  0  0  0  0  0  0  0  0  0
    6.3835  -17.9108    0.0000 C   0  0  0  0  0  0  0  0  0  0  0  0
    4.9608  -17.9109    0.0000 C   0  0  0  0  0  0  0  0  0  0  0  0
    4.9549  -18.7360    0.0000 O   0  0  0  0  0  0  0  0  0  0  0  0
    5.6730  -19.1494    0.0000 C   0  0  0  0  0  0  0  0  0  0  0  0
    6.3888  -18.7362    0.0000 C   0  0  0  0  0  0  0  0  0  0  0  0
    5.6724  -19.9748    0.0000 O   0  0  0  0  0  0  0  0  0  0  0  0
    7.0915  -19.1554    0.0000 C   0  0  0  0  0  0  0  0  0  0  0  0
    7.8088  -17.9217    0.0000 C   0  0  0  0  0  0  0  0  0  0  0  0
    4.2414  -18.3160    0.0000 C   0  0  0  0  0  0  0  0  0  0  0  0
    4.2416  -19.1418    0.0000 C   0  0  0  0  0  0  0  0  0  0  0  0
    3.4368  -16.4072    0.0000 N   0  0  0  0  0  0  0  0  0  0  0  0
    3.4199  -17.7417    0.0000 O   0  0  0  0  0  0  0  0  0  0  0  0
    2.9459  -17.0534    0.0000 C   0  0  0  0  0  0  0  0  0  0  0  0
    2.1231  -17.0585    0.0000 O   0  0  0  0  0  0  0  0  0  0  0  0
    5.6736  -14.2084    0.0000 C   0  0  0  0  0  0  0  0  0  0  0  0
    4.2346  -15.8533    0.0000 C   0  0  0  0  0  0  0  0  0  0  0  0
    3.7891  -18.2109    0.0000 C   0  0  0  0  0  0  0  0  0  0  0  0
    6.7856  -15.5454    0.0000 O   0  0  0  0  0  0  0  0  0  0  0  0
    7.0910  -16.0893    0.0000 C   0  0  0  0  0  0  0  0  0  0  0  0
    4.2502  -15.0337    0.0000 O   0  0  0  0  0  0  0  0  0  0  0  0
    7.6105  -15.5312    0.0000 C   0  0  0  0  0  0  0  0  0  0  0  0
    3.1963  -15.6183    0.0000 C   0  0  0  0  0  0  0  0  0  0  0  0
    2.4260  -15.4195    0.0000 C   0  0  0  0  0  0  0  0  0  0  0  0
    2.1556  -14.6082    0.0000 C   0  0  0  0  0  0  0  0  0  0  0  0
    7.0852  -18.3409    0.0000 O   0  0  0  0  0  0  0  0  0  0  0  0
    7.7730  -18.8187    0.0000 C   0  0  0  0  0  0  0  0  0  0  0  0
    8.2294  -18.1282    0.0000 O   0  0  0  0  0  0  0  0  0  0  0  0
    8.1396  -19.5539    0.0000 C   0  0  0  0  0  0  0  0  0  0  0  0
    7.6831  -20.2443    0.0000 C   0  0  0  0  0  0  0  0  0  0  0  0
    8.0535  -20.9817    0.0000 C   0  0  0  0  0  0  0  0  0  0  0  0
    7.5971  -21.6721    0.0000 C   0  0  0  0  0  0  0  0  0  0  0  0
    6.7743  -21.6211    0.0000 C   0  0  0  0  0  0  0  0  0  0  0  0
    6.4081  -20.8838    0.0000 C   0  0  0  0  0  0  0  0  0  0  0  0
    6.8604  -20.1933    0.0000 C   0  0  0  0  0  0  0  0  0  0  0  0
    7.1107  -22.9101    0.0000 C   0  0  0  0  0  0  0  0  0  0  0  0
    7.8034  -22.4675    0.0000 O   0  0  0  0  0  0  0  0  0  0  0  0
    6.4719  -22.3862    0.0000 O   0  0  0  0  0  0  0  0  0  0  0  0
    1.3685  -14.4464    0.0000 C   0  0  0  0  0  0  0  0  0  0  0  0
   -0.3657  -13.9782    0.0000 N   0  0  0  0  0  0  0  0  0  0  0  0
    9.2546  -15.4508    0.0000 O   0  0  0  0  0  0  0  0  0  0  0  0
    4.9250  -17.0792    0.0000 H   0  0  0  0  0  0  0  0  0  0  0  0
    8.5083  -15.8500    0.0000 H   0  0  0  0  0  0  0  0  0  0  0  0
  3  7  1  0
  8  4  1  0
  4  1  2  0
  5  6  2  0
  6  8  1  0
  7  8  2  0
  5  9  1  0
  2 10  1  0
 10 11  1  0
 12 13  1  0
 12 17  1  0
 13 14  1  0
 14 15  1  0
 15 16  1  0
 16 17  1  0
 15 18  1  1
 13 19  1  0
 17 20  1  1
 20 21  1  0
 20 22  1  0
 23 24  1  0
 23 25  1  0
 25 26  1  0
 26 27  1  0
 27 28  1  0
 28 29  1  0
 29 30  1  0
 30 31  1  0
 31 32  1  0
 32 36  1  0
 24 33  1  0
 33 34  1  0
 34 35  1  0
 35 36  1  0
 35 37  2  0
 36 38  1  1
 31 39  1  1
 33 40  1  1
 40 41  1  0
 23 42  1  0
 24 43  1  0
 42 44  1  0
 43 44  1  0
 44 45  2  0
 27 46  1  6
 25 47  1  6
 24 48  1  6
 29 49  1  6
 29 50  1  0
 26 51  2  0
 49 52  1  0
 30 19  1  6
 42 53  1  0
 53 54  1  0
 54 55  1  0
 32 56  1  1
 57 58  2  0
 57 59  1  0
 60 61  1  0
 61 62  2  0
 62 63  1  0
 63 64  2  0
 64 65  1  0
 60 65  2  0
 59 60  1  0
 66 67  1  0
 66 68  1  0
 62 67  1  0
 63 68  1  0
 56 57  1  0
 55 69  1  0
 69  9  1  0
  1  2  1  0
  5 70  1  0
 70  7  1  0
 12 71  1  6
 23 72  1  1
  2  3  2  0
 13 73  1  6
M  END

> <chembl_id>
CHEMBL558511

> <chembl_pref_name>
None


$$$$

     RDKit          2D

 70 75  0  0  0  0  0  0  0  0999 V2000
   11.9940  -16.0516    0.0000 C   0  0  0  0  0  0  0  0  0  0  0  0
   12.0068  -17.4828    0.0000 C   0  0  0  0  0  0  0  0  0  0  0  0
   12.4101  -16.7653    0.0000 C   0  0  0  0  0  0  0  0  0  0  0  0
   13.2374  -16.7582    0.0000 C   0  0  0  0  0  0  0  0  0  0  0  0
   13.6589  -17.4735    0.0000 C   0  0  0  0  0  0  0  0  0  0  0  0
   13.2496  -18.1906    0.0000 C   0  0  0  0  0  0  0  0  0  0  0  0
   12.4246  -18.1959    0.0000 N   0  0  0  0  0  0  0  0  0  0  0  0
   11.1688  -16.0606    0.0000 C   0  0  0  0  0  0  0  0  0  0  0  0
   10.7497  -15.3512    0.0000 O   0  0  0  0  0  0  0  0  0  0  0  0
   10.7740  -13.2264    0.0000 C   0  0  0  0  0  0  0  0  0  0  0  0
   10.7808  -14.0514    0.0000 C   0  0  0  0  0  0  0  0  0  0  0  0
   11.5005  -14.4516    0.0000 O   0  0  0  0  0  0  0  0  0  0  0  0
   12.2055  -14.0375    0.0000 C   0  0  0  0  0  0  0  0  0  0  0  0
   12.1988  -13.2124    0.0000 C   0  0  0  0  0  0  0  0  0  0  0  0
   11.4785  -12.8015    0.0000 C   0  0  0  0  0  0  0  0  0  0  0  0
   12.9235  -14.4389    0.0000 C   0  0  0  0  0  0  0  0  0  0  0  0
   10.0731  -14.4727    0.0000 O   0  0  0  0  0  0  0  0  0  0  0  0
   11.4716  -11.9764    0.0000 N   0  0  0  0  0  0  0  0  0  0  0  0
   12.1822  -11.5567    0.0000 C   0  0  0  0  0  0  0  0  0  0  0  0
   10.7524  -11.5711    0.0000 C   0  0  0  0  0  0  0  0  0  0  0  0
    7.2466  -16.7231    0.0000 C   0  0  0  0  0  0  0  0  0  0  0  0
    7.6808  -17.4366    0.0000 C   0  0  0  0  0  0  0  0  0  0  0  0
    7.6658  -15.9897    0.0000 C   0  0  0  0  0  0  0  0  0  0  0  0
    7.2303  -15.2924    0.0000 C   0  0  0  0  0  0  0  0  0  0  0  0
    7.6140  -14.5653    0.0000 C   0  0  0  0  0  0  0  0  0  0  0  0
    8.4372  -14.5374    0.0000 C   0  0  0  0  0  0  0  0  0  0  0  0
    8.8709  -15.2357    0.0000 C   0  0  0  0  0  0  0  0  0  0  0  0
    9.6960  -15.2058    0.0000 C   0  0  0  0  0  0  0  0  0  0  0  0
   10.1286  -15.9022    0.0000 C   0  0  0  0  0  0  0  0  0  0  0  0
    9.7448  -16.6293    0.0000 C   0  0  0  0  0  0  0  0  0  0  0  0
    8.5388  -17.3842    0.0000 C   0  0  0  0  0  0  0  0  0  0  0  0
    8.9694  -18.0847    0.0000 O   0  0  0  0  0  0  0  0  0  0  0  0
    9.7976  -18.0535    0.0000 C   0  0  0  0  0  0  0  0  0  0  0  0
   10.1840  -17.3244    0.0000 C   0  0  0  0  0  0  0  0  0  0  0  0
   10.2328  -18.7547    0.0000 O   0  0  0  0  0  0  0  0  0  0  0  0
   11.0025  -17.3072    0.0000 C   0  0  0  0  0  0  0  0  0  0  0  0
    8.1437  -18.1091    0.0000 C   0  0  0  0  0  0  0  0  0  0  0  0
    8.5794  -18.8101    0.0000 C   0  0  0  0  0  0  0  0  0  0  0  0
    6.4490  -16.9152    0.0000 N   0  0  0  0  0  0  0  0  0  0  0  0
    7.1404  -18.0565    0.0000 O   0  0  0  0  0  0  0  0  0  0  0  0
    6.3727  -17.7254    0.0000 C   0  0  0  0  0  0  0  0  0  0  0  0
    5.6790  -18.1637    0.0000 O   0  0  0  0  0  0  0  0  0  0  0  0
    7.1744  -13.8670    0.0000 C   0  0  0  0  0  0  0  0  0  0  0  0
    6.8305  -16.0245    0.0000 C   0  0  0  0  0  0  0  0  0  0  0  0
    7.7006  -18.2592    0.0000 C   0  0  0  0  0  0  0  0  0  0  0  0
    8.8283  -14.4110    0.0000 O   0  0  0  0  0  0  0  0  0  0  0  0
    9.3759  -14.7090    0.0000 C   0  0  0  0  0  0  0  0  0  0  0  0
    6.4080  -15.3200    0.0000 O   0  0  0  0  0  0  0  0  0  0  0  0
    9.5196  -13.9609    0.0000 C   0  0  0  0  0  0  0  0  0  0  0  0
    6.0286  -16.2035    0.0000 C   0  0  0  0  0  0  0  0  0  0  0  0
    5.2027  -16.2077    0.0000 C   0  0  0  0  0  0  0  0  0  0  0  0
    4.7861  -15.4989    0.0000 C   0  0  0  0  0  0  0  0  0  0  0  0
   10.5648  -16.6204    0.0000 O   0  0  0  0  0  0  0  0  0  0  0  0
   10.0547  -12.8192    0.0000 O   0  0  0  0  0  0  0  0  0  0  0  0
    8.0650  -16.7163    0.0000 H   0  0  0  0  0  0  0  0  0  0  0  0
   10.7782  -14.8768    0.0000 H   0  0  0  0  0  0  0  0  0  0  0  0
   10.1137  -15.0785    0.0000 C   0  0  0  0  0  0  0  0  0  0  0  0
    3.9611  -15.5052    0.0000 C   0  0  0  0  0  0  0  0  0  0  0  0
    3.5430  -14.7939    0.0000 S   0  0  0  0  0  0  0  0  0  0  0  0
   -0.0319  -15.1978    0.0000 C   0  0  0  0  0  0  0  0  0  0  0  0
    0.1449  -16.0018    0.0000 C   0  0  0  0  0  0  0  0  0  0  0  0
    0.9312  -16.2455    0.0000 N   0  0  0  0  0  0  0  0  0  0  0  0
    0.5693  -14.6378    0.0000 C   0  0  0  0  0  0  0  0  0  0  0  0
    2.7354  -14.9724    0.0000 C   0  0  0  0  0  0  0  0  0  0  0  0
    2.0854  -14.4330    0.0000 N   0  0  0  0  0  0  0  0  0  0  0  0
    1.5441  -15.6878    0.0000 C   0  0  0  0  0  0  0  0  0  0  0  0
    1.3512  -14.8762    0.0000 C   0  0  0  0  0  0  0  0  0  0  0  0
   -0.4583  -16.5705    0.0000 O   0  0  0  0  0  0  0  0  0  0  0  0
   -0.2810  -17.3684    0.0000 C   0  0  0  0  0  0  0  0  0  0  0  0
    2.3688  -15.7115    0.0000 N   0  0  0  0  0  0  0  0  0  0  0  0
 11 17  1  0
 15 18  1  1
 18 19  1  0
 18 20  1  0
 21 22  1  0
 21 23  1  0
 23 24  1  0
 24 25  1  0
 25 26  1  0
 26 27  1  0
 27 28  1  0
 28 29  1  0
 29 30  1  0
 30 34  1  0
 22 31  1  0
 31 32  1  0
 32 33  1  0
 33 34  1  0
 33 35  2  0
 34 36  1  1
 31 37  1  1
 37 38  1  0
 21 39  1  0
 22 40  1  0
 39 41  1  0
 40 41  1  0
 41 42  2  0
 25 43  1  6
 23 44  1  6
 22 45  1  6
 27 46  1  6
 27 47  1  0
 24 48  2  0
 46 49  1  0
 28 17  1  6
 39 50  1  0
 50 51  1  0
 51 52  1  0
 30 53  1  1
 53  8  1  0
  2  3  1  0
 10 54  1  6
 21 55  1  1
  3  4  2  0
 11 56  1  6
  4  5  1  0
 29 57  1  1
  5  6  2  0
 52 58  1  0
  6  7  1  0
 58 59  1  0
  2  7  2  0
  1  3  1  0
  1  8  1  0
  8  9  2  0
 10 11  1  0
 10 15  1  0
 11 12  1  0
 12 13  1  0
 13 14  1  0
 14 15  1  0
 13 16  1  1
 60 61  1  0
 61 62  2  0
 62 66  1  0
 67 63  1  0
 63 60  2  0
 64 65  2  0
 65 67  1  0
 66 67  2  0
 64 59  1  0
 61 68  1  0
 68 69  1  0
 64 70  1  0
 70 66  1  0
M  END

> <chembl_id>
CHEMBL539911

> <chembl_pref_name>
None


$$$$

     RDKit          2D

 61 65  0  0  0  0  0  0  0  0999 V2000
   -0.0555  -14.1814    0.0000 C   0  0  0  0  0  0  0  0  0  0  0  0
   -0.0993  -15.0036    0.0000 C   0  0  0  0  0  0  0  0  0  0  0  0
    0.5937  -15.4480    0.0000 N   0  0  0  0  0  0  0  0  0  0  0  0
    0.6733  -13.8018    0.0000 C   0  0  0  0  0  0  0  0  0  0  0  0
    2.6723  -14.7014    0.0000 C   0  0  0  0  0  0  0  0  0  0  0  0
    2.1894  -14.0083    0.0000 N   0  0  0  0  0  0  0  0  0  0  0  0
    1.3332  -15.0737    0.0000 C   0  0  0  0  0  0  0  0  0  0  0  0
    1.3634  -14.2399    0.0000 C   0  0  0  0  0  0  0  0  0  0  0  0
    3.4955  -14.7430    0.0000 S   0  0  0  0  0  0  0  0  0  0  0  0
   -0.8324  -15.3910    0.0000 O   0  0  0  0  0  0  0  0  0  0  0  0
   -0.8740  -16.2074    0.0000 C   0  0  0  0  0  0  0  0  0  0  0  0
   11.6952  -17.0652    0.0000 C   0  0  0  0  0  0  0  0  0  0  0  0
   11.0028  -17.5141    0.0000 C   0  0  0  0  0  0  0  0  0  0  0  0
   11.0519  -18.3363    0.0000 O   0  0  0  0  0  0  0  0  0  0  0  0
   11.7799  -18.7085    0.0000 C   0  0  0  0  0  0  0  0  0  0  0  0
   12.4723  -18.2596    0.0000 C   0  0  0  0  0  0  0  0  0  0  0  0
   12.4322  -17.4313    0.0000 C   0  0  0  0  0  0  0  0  0  0  0  0
   11.8271  -19.5301    0.0000 C   0  0  0  0  0  0  0  0  0  0  0  0
   10.2659  -17.1427    0.0000 O   0  0  0  0  0  0  0  0  0  0  0  0
   13.1245  -16.9824    0.0000 N   0  0  0  0  0  0  0  0  0  0  0  0
   13.8602  -17.3562    0.0000 C   0  0  0  0  0  0  0  0  0  0  0  0
   13.0801  -16.1578    0.0000 C   0  0  0  0  0  0  0  0  0  0  0  0
    6.7065  -18.4857    0.0000 C   0  0  0  0  0  0  0  0  0  0  0  0
    7.4264  -17.2303    0.0000 C   0  0  0  0  0  0  0  0  0  0  0  0
    7.4037  -16.4083    0.0000 C   0  0  0  0  0  0  0  0  0  0  0  0
    8.1029  -15.9755    0.0000 C   0  0  0  0  0  0  0  0  0  0  0  0
    8.8270  -16.3683    0.0000 C   0  0  0  0  0  0  0  0  0  0  0  0
    8.8475  -17.1902    0.0000 C   0  0  0  0  0  0  0  0  0  0  0  0
    9.5741  -17.5821    0.0000 C   0  0  0  0  0  0  0  0  0  0  0  0
    9.5946  -18.4019    0.0000 C   0  0  0  0  0  0  0  0  0  0  0  0
    8.8954  -18.8346    0.0000 C   0  0  0  0  0  0  0  0  0  0  0  0
    7.4731  -18.8750    0.0000 C   0  0  0  0  0  0  0  0  0  0  0  0
    7.4898  -19.6972    0.0000 O   0  0  0  0  0  0  0  0  0  0  0  0
    8.2199  -20.0897    0.0000 C   0  0  0  0  0  0  0  0  0  0  0  0
    8.9223  -19.6566    0.0000 C   0  0  0  0  0  0  0  0  0  0  0  0
    8.2401  -20.9148    0.0000 O   0  0  0  0  0  0  0  0  0  0  0  0
    9.6370  -20.0562    0.0000 C   0  0  0  0  0  0  0  0  0  0  0  0
   10.3198  -18.8014    0.0000 C   0  0  0  0  0  0  0  0  0  0  0  0
    6.7653  -19.3001    0.0000 C   0  0  0  0  0  0  0  0  0  0  0  0
    6.7861  -20.1254    0.0000 C   0  0  0  0  0  0  0  0  0  0  0  0
    5.9081  -17.4122    0.0000 N   0  0  0  0  0  0  0  0  0  0  0  0
    5.9266  -18.7467    0.0000 O   0  0  0  0  0  0  0  0  0  0  0  0
    5.4322  -18.0724    0.0000 C   0  0  0  0  0  0  0  0  0  0  0  0
    4.6118  -18.0991    0.0000 O   0  0  0  0  0  0  0  0  0  0  0  0
    8.0773  -15.1506    0.0000 C   0  0  0  0  0  0  0  0  0  0  0  0
    6.6881  -16.8373    0.0000 C   0  0  0  0  0  0  0  0  0  0  0  0
    6.3072  -19.2052    0.0000 C   0  0  0  0  0  0  0  0  0  0  0  0
    9.2283  -16.4573    0.0000 O   0  0  0  0  0  0  0  0  0  0  0  0
    9.5496  -16.9916    0.0000 C   0  0  0  0  0  0  0  0  0  0  0  0
    6.6806  -16.0157    0.0000 O   0  0  0  0  0  0  0  0  0  0  0  0
   10.0524  -16.4191    0.0000 C   0  0  0  0  0  0  0  0  0  0  0  0
    5.6419  -16.6292    0.0000 C   0  0  0  0  0  0  0  0  0  0  0  0
    4.8322  -16.4658    0.0000 C   0  0  0  0  0  0  0  0  0  0  0  0
    4.5681  -15.6870    0.0000 C   0  0  0  0  0  0  0  0  0  0  0  0
    9.6070  -19.2442    0.0000 O   0  0  0  0  0  0  0  0  0  0  0  0
    3.7590  -15.5258    0.0000 C   0  0  0  0  0  0  0  0  0  0  0  0
    2.1218  -15.3159    0.0000 N   0  0  0  0  0  0  0  0  0  0  0  0
   11.6524  -16.2397    0.0000 O   0  0  0  0  0  0  0  0  0  0  0  0
   10.9958  -16.6875    0.0000 H   0  0  0  0  0  0  0  0  0  0  0  0
    6.6933  -17.6505    0.0000 C   0  0  0  0  0  0  0  0  0  0  0  0
    7.4902  -17.8640    0.0000 C   0  0  0  0  0  0  0  0  0  0  0  0
  5  6  2  0
  6  8  1  0
  7  8  2  0
  5  9  1  0
  2 10  1  0
 10 11  1  0
  1  2  1  0
  2  3  2  0
 12 13  1  0
 12 17  1  0
 13 14  1  0
 14 15  1  0
 15 16  1  0
 16 17  1  0
 15 18  1  1
 13 19  1  0
 17 20  1  1
 20 21  1  0
 20 22  1  0
 60 23  1  0
 60 24  1  0
 24 25  1  0
 25 26  1  0
 26 27  1  0
 27 28  1  0
 28 29  1  0
 29 30  1  0
 30 31  1  0
 31 35  1  0
 23 32  1  0
 32 33  1  0
 33 34  1  0
 34 35  1  0
 34 36  2  0
 35 37  1  1
 30 38  1  1
 32 39  1  1
 39 40  1  0
 60 41  1  0
 23 42  1  0
 41 43  1  0
 42 43  1  0
 43 44  2  0
 26 45  1  6
 24 46  1  6
 23 47  1  6
 28 48  1  0
 28 49  1  1
 25 50  2  0
 48 51  1  0
 29 19  1  6
 41 52  1  0
 52 53  1  0
 53 54  1  0
 31 55  2  0
  3  7  1  0
 54 56  1  0
 56  9  1  0
  8  4  1  0
  4  1  2  0
  5 57  1  0
 57  7  1  0
 12 58  1  6
 13 59  1  6
 60 61  1  1
M  END

> <chembl_id>
CHEMBL559142

> <chembl_pref_name>
None


$$$$

     RDKit          2D

 72 78  0  0  0  0  0  0  0  0999 V2000
   -1.1278  -16.0029    0.0000 C   0  0  0  0  0  0  0  0  0  0  0  0
   -0.5390  -16.5783    0.0000 C   0  0  0  0  0  0  0  0  0  0  0  0
    0.2521  -16.3510    0.0000 N   0  0  0  0  0  0  0  0  0  0  0  0
   -0.9320  -15.2051    0.0000 C   0  0  0  0  0  0  0  0  0  0  0  0
    1.0627  -14.2970    0.0000 C   0  0  0  0  0  0  0  0  0  0  0  0
    0.2235  -14.2024    0.0000 N   0  0  0  0  0  0  0  0  0  0  0  0
    0.4588  -15.5485    0.0000 C   0  0  0  0  0  0  0  0  0  0  0  0
   -0.1476  -14.9757    0.0000 C   0  0  0  0  0  0  0  0  0  0  0  0
    1.6371  -13.7060    0.0000 S   0  0  0  0  0  0  0  0  0  0  0  0
   -0.7316  -17.3846    0.0000 O   0  0  0  0  0  0  0  0  0  0  0  0
   -0.1459  -17.9545    0.0000 C   0  0  0  0  0  0  0  0  0  0  0  0
    9.5722  -15.3040    0.0000 C   0  0  0  0  0  0  0  0  0  0  0  0
    8.8606  -15.7217    0.0000 C   0  0  0  0  0  0  0  0  0  0  0  0
    8.8732  -16.5451    0.0000 O   0  0  0  0  0  0  0  0  0  0  0  0
    9.5839  -16.9492    0.0000 C   0  0  0  0  0  0  0  0  0  0  0  0
   10.2955  -16.5315    0.0000 C   0  0  0  0  0  0  0  0  0  0  0  0
   10.2921  -15.7023    0.0000 C   0  0  0  0  0  0  0  0  0  0  0  0
    9.5944  -17.7717    0.0000 C   0  0  0  0  0  0  0  0  0  0  0  0
    8.1412  -15.3179    0.0000 O   0  0  0  0  0  0  0  0  0  0  0  0
   11.0034  -15.2847    0.0000 N   0  0  0  0  0  0  0  0  0  0  0  0
   11.7217  -15.6908    0.0000 C   0  0  0  0  0  0  0  0  0  0  0  0
   10.9957  -14.4591    0.0000 C   0  0  0  0  0  0  0  0  0  0  0  0
    4.5791  -16.6623    0.0000 C   0  0  0  0  0  0  0  0  0  0  0  0
    5.2987  -15.4071    0.0000 C   0  0  0  0  0  0  0  0  0  0  0  0
    5.2761  -14.5854    0.0000 C   0  0  0  0  0  0  0  0  0  0  0  0
    5.9751  -14.1527    0.0000 C   0  0  0  0  0  0  0  0  0  0  0  0
    6.6991  -14.5453    0.0000 C   0  0  0  0  0  0  0  0  0  0  0  0
    6.7196  -15.3672    0.0000 C   0  0  0  0  0  0  0  0  0  0  0  0
    7.4461  -15.7589    0.0000 C   0  0  0  0  0  0  0  0  0  0  0  0
    7.4665  -16.5785    0.0000 C   0  0  0  0  0  0  0  0  0  0  0  0
    6.7675  -17.0112    0.0000 C   0  0  0  0  0  0  0  0  0  0  0  0
    5.3454  -17.0516    0.0000 C   0  0  0  0  0  0  0  0  0  0  0  0
    5.3621  -17.8735    0.0000 O   0  0  0  0  0  0  0  0  0  0  0  0
    6.0920  -18.2660    0.0000 C   0  0  0  0  0  0  0  0  0  0  0  0
    6.7943  -17.8330    0.0000 C   0  0  0  0  0  0  0  0  0  0  0  0
    6.1123  -19.0910    0.0000 O   0  0  0  0  0  0  0  0  0  0  0  0
    7.5088  -18.2326    0.0000 C   0  0  0  0  0  0  0  0  0  0  0  0
    8.1915  -16.9780    0.0000 C   0  0  0  0  0  0  0  0  0  0  0  0
    4.6377  -17.4766    0.0000 C   0  0  0  0  0  0  0  0  0  0  0  0
    4.6586  -18.3017    0.0000 C   0  0  0  0  0  0  0  0  0  0  0  0
    3.7808  -15.5890    0.0000 N   0  0  0  0  0  0  0  0  0  0  0  0
    3.7993  -16.9232    0.0000 O   0  0  0  0  0  0  0  0  0  0  0  0
    3.3049  -16.2492    0.0000 C   0  0  0  0  0  0  0  0  0  0  0  0
    2.4848  -16.2758    0.0000 O   0  0  0  0  0  0  0  0  0  0  0  0
    5.9496  -13.3280    0.0000 C   0  0  0  0  0  0  0  0  0  0  0  0
    4.5607  -15.0142    0.0000 C   0  0  0  0  0  0  0  0  0  0  0  0
    4.1797  -17.3817    0.0000 C   0  0  0  0  0  0  0  0  0  0  0  0
    7.1003  -14.6344    0.0000 O   0  0  0  0  0  0  0  0  0  0  0  0
    7.4216  -15.1686    0.0000 C   0  0  0  0  0  0  0  0  0  0  0  0
    4.5532  -14.1928    0.0000 O   0  0  0  0  0  0  0  0  0  0  0  0
    7.9243  -14.5962    0.0000 C   0  0  0  0  0  0  0  0  0  0  0  0
    3.5146  -14.8063    0.0000 C   0  0  0  0  0  0  0  0  0  0  0  0
    2.7050  -14.6428    0.0000 C   0  0  0  0  0  0  0  0  0  0  0  0
    2.4410  -13.8643    0.0000 C   0  0  0  0  0  0  0  0  0  0  0  0
    7.4788  -17.4207    0.0000 O   0  0  0  0  0  0  0  0  0  0  0  0
    8.1796  -17.8757    0.0000 C   0  0  0  0  0  0  0  0  0  0  0  0
    8.6150  -17.1738    0.0000 O   0  0  0  0  0  0  0  0  0  0  0  0
    8.5687  -18.6003    0.0000 C   0  0  0  0  0  0  0  0  0  0  0  0
    8.1332  -19.3022    0.0000 C   0  0  0  0  0  0  0  0  0  0  0  0
    8.5222  -20.0310    0.0000 C   0  0  0  0  0  0  0  0  0  0  0  0
    8.0868  -20.7329    0.0000 C   0  0  0  0  0  0  0  0  0  0  0  0
    7.2624  -20.7061    0.0000 C   0  0  0  0  0  0  0  0  0  0  0  0
    6.8735  -19.9774    0.0000 C   0  0  0  0  0  0  0  0  0  0  0  0
    7.3089  -19.2754    0.0000 C   0  0  0  0  0  0  0  0  0  0  0  0
    7.6335  -21.9838    0.0000 C   0  0  0  0  0  0  0  0  0  0  0  0
    8.3142  -21.5211    0.0000 O   0  0  0  0  0  0  0  0  0  0  0  0
    6.9801  -21.4777    0.0000 O   0  0  0  0  0  0  0  0  0  0  0  0
    1.1614  -15.1161    0.0000 N   0  0  0  0  0  0  0  0  0  0  0  0
    9.5660  -14.4776    0.0000 O   0  0  0  0  0  0  0  0  0  0  0  0
    4.5659  -15.8274    0.0000 C   0  0  0  0  0  0  0  0  0  0  0  0
    5.2804  -16.2399    0.0000 H   0  0  0  0  0  0  0  0  0  0  0  0
    8.8542  -14.8958    0.0000 H   0  0  0  0  0  0  0  0  0  0  0  0
 12 13  1  0
 12 17  1  0
 13 14  1  0
 14 15  1  0
 15 16  1  0
 16 17  1  0
 15 18  1  1
 13 19  1  0
 17 20  1  1
 20 21  1  0
 20 22  1  0
 70 23  1  0
 70 24  1  0
 24 25  1  0
 25 26  1  0
 26 27  1  0
 27 28  1  0
 28 29  1  0
 29 30  1  0
 30 31  1  0
 31 35  1  0
 23 32  1  0
 32 33  1  0
 33 34  1  0
 34 35  1  0
 34 36  2  0
 35 37  1  1
 30 38  1  1
 32 39  1  1
 39 40  1  0
 70 41  1  0
 23 42  1  0
 41 43  1  0
 42 43  1  0
 43 44  2  0
 26 45  1  6
 24 46  1  6
 23 47  1  6
 28 48  1  6
 28 49  1  0
 25 50  2  0
 48 51  1  0
 29 19  1  6
 41 52  1  0
 52 53  1  0
 53 54  1  0
 54  9  1  0
 31 55  1  1
  1  2  1  0
  2  3  2  0
  3  7  1  0
  8  4  1  0
  4  1  2  0
  5  6  2  0
  6  8  1  0
  7  8  2  0
  5  9  1  0
 56 57  2  0
 56 58  1  0
 59 60  1  0
 60 61  2  0
 61 62  1  0
 62 63  2  0
 63 64  1  0
 59 64  2  0
 58 59  1  0
 65 66  1  0
 65 67  1  0
 61 66  1  0
 62 67  1  0
 55 56  1  0
  2 10  1  0
 10 11  1  0
  5 68  1  0
 68  7  1  0
 12 69  1  6
 70 71  1  1
 13 72  1  6
M  END

> <chembl_id>
CHEMBL550372

> <chembl_pref_name>
None


$$$$

     RDKit          2D

 69 74  0  0  0  0  0  0  0  0999 V2000
    7.5578  -16.9620    0.0000 C   0  0  0  0  0  0  0  0  0  0  0  0
    6.8443  -18.2025    0.0000 C   0  0  0  0  0  0  0  0  0  0  0  0
    7.5553  -17.7879    0.0000 C   0  0  0  0  0  0  0  0  0  0  0  0
    8.2723  -18.2007    0.0000 C   0  0  0  0  0  0  0  0  0  0  0  0
    8.2735  -19.0309    0.0000 C   0  0  0  0  0  0  0  0  0  0  0  0
    7.5577  -19.4420    0.0000 C   0  0  0  0  0  0  0  0  0  0  0  0
    6.8436  -19.0289    0.0000 N   0  0  0  0  0  0  0  0  0  0  0  0
    6.8417  -16.5518    0.0000 C   0  0  0  0  0  0  0  0  0  0  0  0
    6.8394  -15.7279    0.0000 O   0  0  0  0  0  0  0  0  0  0  0  0
   -2.4438  -13.7168    0.0000 C   0  0  0  0  0  0  0  0  0  0  0  0
   -2.0708  -14.4507    0.0000 C   0  0  0  0  0  0  0  0  0  0  0  0
   -1.2486  -14.4891    0.0000 N   0  0  0  0  0  0  0  0  0  0  0  0
   -2.0025  -13.0239    0.0000 C   0  0  0  0  0  0  0  0  0  0  0  0
    0.1781  -12.8038    0.0000 C   0  0  0  0  0  0  0  0  0  0  0  0
   -0.5864  -12.4450    0.0000 N   0  0  0  0  0  0  0  0  0  0  0  0
   -0.7954  -13.7954    0.0000 C   0  0  0  0  0  0  0  0  0  0  0  0
   -1.1859  -13.0583    0.0000 C   0  0  0  0  0  0  0  0  0  0  0  0
    0.9117  -12.4283    0.0000 S   0  0  0  0  0  0  0  0  0  0  0  0
   -2.5119  -15.1525    0.0000 O   0  0  0  0  0  0  0  0  0  0  0  0
   -2.1399  -15.8803    0.0000 C   0  0  0  0  0  0  0  0  0  0  0  0
    7.9362  -13.9081    0.0000 C   0  0  0  0  0  0  0  0  0  0  0  0
    7.5243  -14.6229    0.0000 C   0  0  0  0  0  0  0  0  0  0  0  0
    7.9424  -15.3324    0.0000 O   0  0  0  0  0  0  0  0  0  0  0  0
    8.7599  -15.3322    0.0000 C   0  0  0  0  0  0  0  0  0  0  0  0
    9.1718  -14.6173    0.0000 C   0  0  0  0  0  0  0  0  0  0  0  0
    8.7588  -13.8983    0.0000 C   0  0  0  0  0  0  0  0  0  0  0  0
    9.1758  -16.0419    0.0000 C   0  0  0  0  0  0  0  0  0  0  0  0
    6.7009  -14.6279    0.0000 O   0  0  0  0  0  0  0  0  0  0  0  0
    9.1705  -13.1835    0.0000 N   0  0  0  0  0  0  0  0  0  0  0  0
    9.9957  -13.1813    0.0000 C   0  0  0  0  0  0  0  0  0  0  0  0
    8.7556  -12.4698    0.0000 C   0  0  0  0  0  0  0  0  0  0  0  0
    3.1243  -15.1374    0.0000 C   0  0  0  0  0  0  0  0  0  0  0  0
    3.1375  -15.9725    0.0000 C   0  0  0  0  0  0  0  0  0  0  0  0
    3.8571  -14.7173    0.0000 C   0  0  0  0  0  0  0  0  0  0  0  0
    3.8345  -13.8955    0.0000 C   0  0  0  0  0  0  0  0  0  0  0  0
    4.5335  -13.4628    0.0000 C   0  0  0  0  0  0  0  0  0  0  0  0
    5.2575  -13.8555    0.0000 C   0  0  0  0  0  0  0  0  0  0  0  0
    5.2780  -14.6772    0.0000 C   0  0  0  0  0  0  0  0  0  0  0  0
    6.0045  -15.0691    0.0000 C   0  0  0  0  0  0  0  0  0  0  0  0
    6.0250  -15.8887    0.0000 C   0  0  0  0  0  0  0  0  0  0  0  0
    5.3259  -16.3213    0.0000 C   0  0  0  0  0  0  0  0  0  0  0  0
    3.9038  -16.3617    0.0000 C   0  0  0  0  0  0  0  0  0  0  0  0
    3.9205  -17.1837    0.0000 O   0  0  0  0  0  0  0  0  0  0  0  0
    4.6504  -17.5761    0.0000 C   0  0  0  0  0  0  0  0  0  0  0  0
    5.3527  -17.1431    0.0000 C   0  0  0  0  0  0  0  0  0  0  0  0
    4.6707  -18.4011    0.0000 O   0  0  0  0  0  0  0  0  0  0  0  0
    6.0672  -17.5426    0.0000 C   0  0  0  0  0  0  0  0  0  0  0  0
    3.1961  -16.7867    0.0000 C   0  0  0  0  0  0  0  0  0  0  0  0
    3.2170  -17.6118    0.0000 C   0  0  0  0  0  0  0  0  0  0  0  0
    2.3392  -14.8992    0.0000 N   0  0  0  0  0  0  0  0  0  0  0  0
    2.3577  -16.2334    0.0000 O   0  0  0  0  0  0  0  0  0  0  0  0
    1.8633  -15.5593    0.0000 C   0  0  0  0  0  0  0  0  0  0  0  0
    1.0432  -15.5860    0.0000 O   0  0  0  0  0  0  0  0  0  0  0  0
    4.5080  -12.6381    0.0000 C   0  0  0  0  0  0  0  0  0  0  0  0
    3.1191  -14.3244    0.0000 C   0  0  0  0  0  0  0  0  0  0  0  0
    2.7381  -16.6918    0.0000 C   0  0  0  0  0  0  0  0  0  0  0  0
    5.6587  -13.9445    0.0000 O   0  0  0  0  0  0  0  0  0  0  0  0
    5.9800  -14.4787    0.0000 C   0  0  0  0  0  0  0  0  0  0  0  0
    3.1116  -13.5030    0.0000 O   0  0  0  0  0  0  0  0  0  0  0  0
    6.4827  -13.9063    0.0000 C   0  0  0  0  0  0  0  0  0  0  0  0
    2.3370  -14.0727    0.0000 C   0  0  0  0  0  0  0  0  0  0  0  0
    1.6227  -13.6583    0.0000 C   0  0  0  0  0  0  0  0  0  0  0  0
    1.6224  -12.8361    0.0000 C   0  0  0  0  0  0  0  0  0  0  0  0
    6.0376  -16.7288    0.0000 O   0  0  0  0  0  0  0  0  0  0  0  0
    0.0088  -13.6113    0.0000 N   0  0  0  0  0  0  0  0  0  0  0  0
    7.5220  -13.1928    0.0000 O   0  0  0  0  0  0  0  0  0  0  0  0
    3.8333  -15.5458    0.0000 H   0  0  0  0  0  0  0  0  0  0  0  0
    7.1042  -15.3333    0.0000 H   0  0  0  0  0  0  0  0  0  0  0  0
    6.4292  -15.1708    0.0000 C   0  0  0  0  0  0  0  0  0  0  0  0
  5  6  2  0
  6  7  1  0
  2  7  2  0
  1  3  1  0
  1  8  1  0
  8  9  2  0
 10 11  1  0
 11 12  2  0
 12 16  1  0
 17 13  1  0
 13 10  2  0
 14 15  2  0
 15 17  1  0
 16 17  2  0
 14 18  1  0
 11 19  1  0
 19 20  1  0
 21 22  1  0
 21 26  1  0
 22 23  1  0
 23 24  1  0
 24 25  1  0
 25 26  1  0
 24 27  1  1
 22 28  1  0
 26 29  1  1
 29 30  1  0
 29 31  1  0
 32 33  1  0
 32 34  1  0
 34 35  1  0
 35 36  1  0
 36 37  1  0
 37 38  1  0
 38 39  1  0
 39 40  1  0
 40 41  1  0
 41 45  1  0
 33 42  1  0
 42 43  1  0
 43 44  1  0
 44 45  1  0
 44 46  2  0
 45 47  1  1
 42 48  1  1
 48 49  1  0
 32 50  1  0
 33 51  1  0
 50 52  1  0
 51 52  1  0
 52 53  2  0
 36 54  1  6
 34 55  1  6
 33 56  1  6
 38 57  1  6
 38 58  1  0
 35 59  2  0
 57 60  1  0
 39 28  1  6
 50 61  1  0
 61 62  1  0
 62 63  1  0
 63 18  1  0
 41 64  1  1
 64  8  1  0
  2  3  1  0
 14 65  1  0
 65 16  1  0
 21 66  1  6
 32 67  1  1
  3  4  2  0
 22 68  1  6
  4  5  1  0
 40 69  1  1
M  END

> <chembl_id>
CHEMBL562959

> <chembl_pref_name>
None


$$$$

     RDKit          2D

 91 99  0  0  0  0  0  0  0  0999 V2000
    7.0913   -8.2756    0.0000 C   0  0  0  0  0  0  0  0  0  0  0  0
    6.3799   -7.8577    0.0000 C   0  0  0  0  0  0  0  0  0  0  0  0
    6.3882   -7.0370    0.0000 O   0  0  0  0  0  0  0  0  0  0  0  0
    7.1009   -6.6298    0.0000 C   0  0  0  0  0  0  0  0  0  0  0  0
    7.8124   -7.0475    0.0000 C   0  0  0  0  0  0  0  0  0  0  0  0
    7.8111   -7.8725    0.0000 C   0  0  0  0  0  0  0  0  0  0  0  0
    8.5226   -8.2903    0.0000 O   0  0  0  0  0  0  0  0  0  0  0  0
    7.0828   -9.1005    0.0000 O   0  0  0  0  0  0  0  0  0  0  0  0
    8.5286   -6.6382    0.0000 O   0  0  0  0  0  0  0  0  0  0  0  0
    7.1058   -5.8048    0.0000 C   0  0  0  0  0  0  0  0  0  0  0  0
    5.6618   -8.2639    0.0000 O   0  0  0  0  0  0  0  0  0  0  0  0
    2.8125   -6.6083    0.0000 O   0  0  0  0  0  0  0  0  0  0  0  0
    3.5250   -7.0208    0.0000 C   0  0  0  0  0  0  0  0  0  0  0  0
    3.5220   -7.8450    0.0000 C   0  0  0  0  0  0  0  0  0  0  0  0
    4.2304   -8.2574    0.0000 C   0  0  0  0  0  0  0  0  0  0  0  0
    4.9463   -7.8502    0.0000 C   0  0  0  0  0  0  0  0  0  0  0  0
    4.9493   -7.0259    0.0000 C   0  0  0  0  0  0  0  0  0  0  0  0
    4.2364   -6.6090    0.0000 O   0  0  0  0  0  0  0  0  0  0  0  0
    5.6657   -6.6167    0.0000 C   0  0  0  0  0  0  0  0  0  0  0  0
    3.8125   -8.9666    0.0000 C   0  0  0  0  0  0  0  0  0  0  0  0
    4.6375   -8.9666    0.0000 O   0  0  0  0  0  0  0  0  0  0  0  0
    5.4625   -8.9687    0.0000 C   0  0  0  0  0  0  0  0  0  0  0  0
    3.5208   -6.1958    0.0000 H   0  0  0  0  0  0  0  0  0  0  0  0
    6.3750   -8.6792    0.0000 H   0  0  0  0  0  0  0  0  0  0  0  0
    3.5407   -4.5417    0.0000 O   0  0  0  0  0  0  0  0  0  0  0  0
    3.9397   -3.8222    0.0000 C   0  0  0  0  0  0  0  0  0  0  0  0
    4.7631   -3.8100    0.0000 O   0  0  0  0  0  0  0  0  0  0  0  0
    5.1621   -3.0948    0.0000 C   0  0  0  0  0  0  0  0  0  0  0  0
    4.7421   -2.3870    0.0000 C   0  0  0  0  0  0  0  0  0  0  0  0
    3.9185   -2.3993    0.0000 C   0  0  0  0  0  0  0  0  0  0  0  0
    3.5151   -3.1192    0.0000 C   0  0  0  0  0  0  0  0  0  0  0  0
    5.9871   -3.0836    0.0000 C   0  0  0  0  0  0  0  0  0  0  0  0
    3.4962   -1.6906    0.0000 N   0  0  0  0  0  0  0  0  0  0  0  0
    3.8988   -0.9704    0.0000 C   0  0  0  0  0  0  0  0  0  0  0  0
    2.6713   -1.7019    0.0000 C   0  0  0  0  0  0  0  0  0  0  0  0
    2.6902   -3.1325    0.0000 O   0  0  0  0  0  0  0  0  0  0  0  0
    4.3555   -4.5348    0.0000 H   0  0  0  0  0  0  0  0  0  0  0  0
    2.1000   -3.7125    0.0000 C   0  0  0  0  0  0  0  0  0  0  0  0
    1.3838   -3.2959    0.0000 C   0  0  0  0  0  0  0  0  0  0  0  0
    0.6635   -3.7125    0.0000 C   0  0  0  0  0  0  0  0  0  0  0  0
    1.3838   -2.4667    0.0000 C   0  0  0  0  0  0  0  0  0  0  0  0
    0.6635   -4.5417    0.0000 C   0  0  0  0  0  0  0  0  0  0  0  0
   -0.0527   -3.2959    0.0000 O   0  0  0  0  0  0  0  0  0  0  0  0
    2.1000   -4.5417    0.0000 C   0  0  0  0  0  0  0  0  0  0  0  0
    2.8204   -4.9542    0.0000 C   0  0  0  0  0  0  0  0  0  0  0  0
    2.1083   -5.3667    0.0000 O   0  0  0  0  0  0  0  0  0  0  0  0
    1.3901   -5.7828    0.0000 C   0  0  0  0  0  0  0  0  0  0  0  0
    2.8204   -5.7834    0.0000 C   0  0  0  0  0  0  0  0  0  0  0  0
    2.1000   -6.2000    0.0000 C   0  0  0  0  0  0  0  0  0  0  0  0
    2.1000   -7.0292    0.0000 C   0  0  0  0  0  0  0  0  0  0  0  0
    1.3838   -7.4459    0.0000 C   0  0  0  0  0  0  0  0  0  0  0  0
    1.3838   -8.2750    0.0000 O   0  0  0  0  0  0  0  0  0  0  0  0
    0.6635   -6.2000    0.0000 C   0  0  0  0  0  0  0  0  0  0  0  0
    0.6635   -7.0292    0.0000 O   0  0  0  0  0  0  0  0  0  0  0  0
   -0.0458   -6.6084    0.0000 C   0  0  0  0  0  0  0  0  0  0  0  0
   -0.0460   -7.4375    0.0000 C   0  0  0  0  0  0  0  0  0  0  0  0
    1.3766   -4.9565    0.0000 C   0  0  0  0  0  0  0  0  0  0  0  0
    1.3833   -4.1292    0.0000 C   0  0  0  0  0  0  0  0  0  0  0  0
    2.8152   -7.4405    0.0000 C   0  0  0  0  0  0  0  0  0  0  0  0
    3.6417   -5.7834    0.0000 C   0  0  0  0  0  0  0  0  0  0  0  0
   -0.0527   -5.7834    0.0000 C   0  0  0  0  0  0  0  0  0  0  0  0
   -0.0585   -4.9485    0.0000 C   0  0  0  0  0  0  0  0  0  0  0  0
   -0.8543   -4.6959    0.0000 N   0  0  0  0  0  0  0  0  0  0  0  0
   -1.3404   -5.3747    0.0000 C   0  0  0  0  0  0  0  0  0  0  0  0
   -0.8450   -6.0467    0.0000 O   0  0  0  0  0  0  0  0  0  0  0  0
   -2.1654   -5.3804    0.0000 O   0  0  0  0  0  0  0  0  0  0  0  0
   -0.4708   -6.4959    0.0000 C   0  0  0  0  0  0  0  0  0  0  0  0
   -1.2941   -3.9968    0.0000 C   0  0  0  0  0  0  0  0  0  0  0  0
   -0.9094   -3.2670    0.0000 C   0  0  0  0  0  0  0  0  0  0  0  0
   -1.3492   -2.5690    0.0000 C   0  0  0  0  0  0  0  0  0  0  0  0
   -0.9646   -1.8392    0.0000 C   0  0  0  0  0  0  0  0  0  0  0  0
   -1.4053   -1.1420    0.0000 N   0  0  0  0  0  0  0  0  0  0  0  0
   -0.9044   -0.4839    0.0000 C   0  0  0  0  0  0  0  0  0  0  0  0
   -1.3735    0.1948    0.0000 N   0  0  0  0  0  0  0  0  0  0  0  0
   -2.1834   -0.8662    0.0000 C   0  0  0  0  0  0  0  0  0  0  0  0
   -2.1635   -0.0424    0.0000 C   0  0  0  0  0  0  0  0  0  0  0  0
   -2.8658    0.3848    0.0000 C   0  0  0  0  0  0  0  0  0  0  0  0
   -3.5885   -0.0105    0.0000 C   0  0  0  0  0  0  0  0  0  0  0  0
   -3.6045   -0.8375    0.0000 C   0  0  0  0  0  0  0  0  0  0  0  0
   -2.9015   -1.2611    0.0000 N   0  0  0  0  0  0  0  0  0  0  0  0
   -0.0667   -4.1208    0.0000 H   0  0  0  0  0  0  0  0  0  0  0  0
    8.5323   -5.8132    0.0000 C   0  0  0  0  0  0  0  0  0  0  0  0
    9.2486   -5.4039    0.0000 C   0  0  0  0  0  0  0  0  0  0  0  0
    7.8196   -5.3976    0.0000 O   0  0  0  0  0  0  0  0  0  0  0  0
    9.9560   -5.8229    0.0000 C   0  0  0  0  0  0  0  0  0  0  0  0
   10.6718   -5.4142    0.0000 C   0  0  0  0  0  0  0  0  0  0  0  0
   10.6759   -4.5883    0.0000 C   0  0  0  0  0  0  0  0  0  0  0  0
    9.9582   -4.1728    0.0000 C   0  0  0  0  0  0  0  0  0  0  0  0
    9.2454   -4.5839    0.0000 C   0  0  0  0  0  0  0  0  0  0  0  0
    6.3833   -6.2167    0.0000 H   0  0  0  0  0  0  0  0  0  0  0  0
    8.5208   -7.4583    0.0000 H   0  0  0  0  0  0  0  0  0  0  0  0
 12 13  1  0
 13 14  1  0
  2  3  1  0
  4 10  1  0
  3  4  1  0
 13 18  1  0
 14 15  1  0
 15 16  1  0
 16 17  1  0
 17 18  1  0
 25 26  1  0
 26 27  1  0
 26 31  1  0
 27 28  1  0
 28 29  1  0
 29 30  1  0
 30 31  1  0
 28 32  1  1
 30 33  1  1
 33 34  1  0
 33 35  1  0
 31 36  1  6
 17 19  1  1
 26 37  1  6
 15 20  1  1
 15 21  1  0
  4  5  1  0
 21 22  1  0
 44 46  1  6
 46 47  1  0
 45 25  1  6
 45 48  1  0
 48 49  1  0
 49 50  1  0
 38 39  1  0
 50 51  1  0
 51 52  2  0
 51 54  1  0
 39 40  1  0
 61 53  1  0
 50 59  1  1
 48 60  1  1
 53 54  1  0
 39 41  1  6
 61 62  1  0
 53 55  1  1
 55 56  1  0
 40 42  1  0
 42 57  1  6
 62 63  1  0
 63 64  1  0
 64 65  1  0
 65 61  1  0
 64 66  2  0
 44 58  1  0
 61 67  1  6
 40 43  2  0
 49 12  1  1
 63 68  1  0
 42 62  1  0
 68 69  1  0
 69 70  1  0
 70 71  1  0
 71 72  1  0
 72 73  1  0
 38 44  1  0
 73 74  2  0
 74 76  1  0
 75 72  1  0
 44 45  1  0
 75 76  2  0
 76 77  1  0
 77 78  2  0
 78 79  1  0
 79 80  2  0
 80 75  1  0
 16 11  1  6
 62 81  1  1
 10 84  1  0
  2 11  1  0
  9 82  1  0
  5  6  1  0
 82 83  1  0
  6  7  1  6
 82 84  1  0
  1  2  1  0
 83 85  2  0
 85 86  1  0
 13 23  1  1
 86 87  2  0
  1  8  1  1
 87 88  1  0
  2 24  1  1
 88 89  2  0
 89 83  1  0
  1  6  1  0
  4 90  1  1
  5  9  1  0
  5 91  1  6
M  END

> <chembl_id>
CHEMBL1224605

> <chembl_pref_name>
None


$$$$

     RDKit          2D

 53 56  0  0  1  0  0  0  0  0999 V2000
    2.3336   -5.3948    0.0000 C   0  0  0  0  0  0  0  0  0  0  0  0
    2.9012   -5.7458    0.0000 C   0  0  0  0  0  0  0  0  0  0  0  0
    1.6220   -5.3948    0.0000 O   0  0  0  0  0  0  0  0  0  0  0  0
    2.3336   -4.6935    0.0000 C   0  0  0  0  0  0  0  0  0  0  0  0
    2.8288   -4.8763    0.0000 C   0  0  0  0  0  0  0  0  0  0  0  0
    2.9012   -6.4678    0.0000 C   0  0  0  0  0  0  0  0  0  0  0  0
    3.5232   -5.4155    0.0000 O   0  0  0  0  0  0  0  0  0  0  0  0
    1.1165   -4.6935    0.0000 C   0  0  0  0  0  0  0  0  0  0  0  0
    1.7220   -4.3398    0.0000 C   0  0  0  0  0  0  0  0  0  0  0  0
    2.3164   -6.8216    0.0000 C   0  0  0  0  0  0  0  0  0  0  0  0
    3.5128   -6.8112    0.0000 C   0  0  0  0  0  0  0  0  0  0  0  0
    4.1141   -5.0617    0.0000 C   0  0  0  0  0  0  0  0  0  0  0  0
    1.1165   -5.3948    0.0000 C   0  0  0  0  0  0  0  0  0  0  0  0
    1.7220   -3.6385    0.0000 C   0  0  0  0  0  0  0  0  0  0  0  0
    3.0866   -7.2174    0.0000 O   0  0  0  0  0  0  0  0  0  0  0  0
    2.3164   -7.5125    0.0000 C   0  0  0  0  0  0  0  0  0  0  0  0
    4.1141   -4.3501    0.0000 C   0  0  0  0  0  0  0  0  0  0  0  0
    4.7299   -5.4155    0.0000 O   0  0  0  0  0  0  0  0  0  0  0  0
    0.4876   -5.7561    0.0000 C   0  0  0  0  0  0  0  0  0  0  0  0
    0.5152   -4.9928    0.0000 C   0  0  0  0  0  0  0  0  0  0  0  0
    3.7293   -7.5539    0.0000 C   0  0  0  0  0  0  0  0  0  0  0  0
    1.7047   -7.8600    0.0000 C   0  0  0  0  0  0  0  0  0  0  0  0
    2.8805   -7.8807    0.0000 C   0  0  0  0  0  0  0  0  0  0  0  0
    4.7195   -3.9819    0.0000 C   0  0  0  0  0  0  0  0  0  0  0  0
    3.5025   -4.0233    0.0000 O   0  0  0  0  0  0  0  0  0  0  0  0
    5.3208   -5.0617    0.0000 C   0  0  0  0  0  0  0  0  0  0  0  0
    0.4876   -6.4678    0.0000 C   0  0  0  0  0  0  0  0  0  0  0  0
   -0.1178   -5.4155    0.0000 O   0  0  0  0  0  0  0  0  0  0  0  0
    3.7293   -8.2552    0.0000 C   0  0  0  0  0  0  0  0  0  0  0  0
    4.3409   -7.1794    0.0000 O   0  0  0  0  0  0  0  0  0  0  0  0
    1.1096   -7.5228    0.0000 O   0  0  0  0  0  0  0  0  0  0  0  0
    1.7047   -8.5613    0.0000 O   0  0  0  0  0  0  0  0  0  0  0  0
    5.3208   -4.3294    0.0000 C   0  0  0  0  0  0  0  0  0  0  0  0
    4.7299   -3.2599    0.0000 N   0  0  0  0  0  0  0  0  0  0  0  0
    5.9263   -5.4259    0.0000 C   0  0  0  0  0  0  0  0  0  0  0  0
    1.1096   -6.8319    0.0000 C   0  0  0  0  0  0  0  0  0  0  0  0
   -0.0971   -6.1203    0.0000 O   0  0  0  0  0  0  0  0  0  0  0  0
    0.0236   -6.8698    0.0000 C   0  0  0  0  0  0  0  0  0  0  0  0
    4.3409   -8.6130    0.0000 C   0  0  0  0  0  0  0  0  0  0  0  0
    4.9361   -7.5332    0.0000 C   0  0  0  0  0  0  0  0  0  0  0  0
    5.3311   -2.8958    0.0000 C   0  0  0  0  0  0  0  0  0  0  0  0
    4.1141   -2.9061    0.0000 C   0  0  0  0  0  0  0  0  0  0  0  0
    0.4152   -7.1898    0.0000 C   0  0  0  0  0  0  0  0  0  0  0  0
   -0.6984   -6.4781    0.0000 C   0  0  0  0  0  0  0  0  0  0  0  0
    4.9361   -8.2552    0.0000 C   0  0  0  0  0  0  0  0  0  0  0  0
    4.8947   -9.1289    0.0000 O   0  0  0  0  0  0  0  0  0  0  0  0
    3.7879   -9.1289    0.0000 C   0  0  0  0  0  0  0  0  0  0  0  0
    5.5477   -7.1587    0.0000 C   0  0  0  0  0  0  0  0  0  0  0  0
    5.9435   -3.2331    0.0000 C   0  0  0  0  0  0  0  0  0  0  0  0
    5.3380   -2.1971    0.0000 C   0  0  0  0  0  0  0  0  0  0  0  0
    0.4152   -7.8497    0.0000 C   0  0  0  0  0  0  0  0  0  0  0  0
    5.5270   -8.6234    0.0000 O   0  0  0  0  0  0  0  0  0  0  0  0
    5.6064   -9.1289    0.0000 C   0  0  0  0  0  0  0  0  0  0  0  0
 22 32  2  0
 24 33  1  0
 24 34  1  1
 26 35  1  1
 27 36  1  0
 27 37  1  0
 27 38  1  6
 29 39  1  0
 30 40  1  0
 34 41  1  0
 34 42  1  0
 36 43  1  1
 37 44  1  0
 39 45  1  0
 39 46  1  0
 39 47  1  1
 40 48  1  1
 41 49  1  0
 41 50  1  0
 43 51  1  0
 45 52  1  6
 46 53  1  0
  8  9  2  0
 26 33  1  0
 31 36  1  0
 40 45  1  0
  1  2  1  0
  1  3  1  0
  1  4  1  0
  1  5  1  1
  2  6  1  0
  2  7  1  6
  3  8  1  0
  4  9  1  0
  6 10  1  0
  6 11  1  1
 12  7  1  1
  8 13  1  0
  9 14  1  0
 10 15  1  1
 10 16  1  0
 12 17  1  0
 12 18  1  0
 13 19  1  0
 13 20  1  6
 21 15  1  6
 16 22  1  0
 16 23  1  1
 17 24  1  0
 17 25  1  6
 18 26  1  0
 19 27  1  0
 19 28  2  0
 21 29  1  0
 21 30  1  0
 22 31  1  0
M  END

> <chembl_id>
CHEMBL2110756

> <chembl_pref_name>
MITEMCINAL


$$$$
 
     RDKit          2D

 61 65  0  0  0  0  0  0  0  0999 V2000
   40.3437  -27.1489    0.0000 F   0  0  0  0  0  0  0  0  0  0  0  0
   39.9392  -26.4432    0.0000 C   0  0  0  0  0  0  0  0  0  0  0  0
   39.5302  -27.1463    0.0000 C   0  0  0  0  0  0  0  0  0  0  0  0
   38.5029  -23.9586    0.0000 C   0  0  0  0  0  0  0  0  0  0  0  0
   39.2169  -23.5582    0.0000 C   0  0  0  0  0  0  0  0  0  0  0  0
   42.6095  -25.4980    0.0000 C   0  0  0  0  0  0  0  0  0  0  0  0
   39.2169  -26.0304    0.0000 C   0  0  0  0  0  0  0  0  0  0  0  0
   40.6532  -26.0304    0.0000 C   0  0  0  0  0  0  0  0  0  0  0  0
   43.4350  -25.4733    0.0000 C   0  0  0  0  0  0  0  0  0  0  0  0
   41.3672  -24.7840    0.0000 C   0  0  0  0  0  0  0  0  0  0  0  0
   37.8054  -22.9598    0.0000 C   0  0  0  0  0  0  0  0  0  0  0  0
   39.2169  -22.7328    0.0000 C   0  0  0  0  0  0  0  0  0  0  0  0
   38.6309  -22.9722    0.0000 O   0  0  0  0  0  0  0  0  0  0  0  0
   40.6449  -25.2050    0.0000 C   0  0  0  0  0  0  0  0  0  0  0  0
   37.8054  -23.6862    0.0000 O   0  0  0  0  0  0  0  0  0  0  0  0
   39.2169  -25.2050    0.0000 O   0  0  0  0  0  0  0  0  0  0  0  0
   39.9309  -22.3201    0.0000 C   0  0  0  0  0  0  0  0  0  0  0  0
   42.1844  -24.7840    0.0000 O   0  0  0  0  0  0  0  0  0  0  0  0
   43.8724  -26.1749    0.0000 C   0  0  0  0  0  0  0  0  0  0  0  0
   41.3672  -23.9709    0.0000 C   0  0  0  0  0  0  0  0  0  0  0  0
   38.5070  -24.7964    0.0000 C   0  0  0  0  0  0  0  0  0  0  0  0
   42.2174  -26.2368    0.0000 O   0  0  0  0  0  0  0  0  0  0  0  0
   40.6449  -22.7328    0.0000 C   0  0  0  0  0  0  0  0  0  0  0  0
   40.6449  -23.5582    0.0000 C   0  0  0  0  0  0  0  0  0  0  0  0
   43.4845  -26.9054    0.0000 C   0  0  0  0  0  0  0  0  0  0  0  0
   44.6979  -26.1501    0.0000 N   0  0  0  0  0  0  0  0  0  0  0  0
   38.5070  -26.4473    0.0000 O   0  0  0  0  0  0  0  0  0  0  0  0
   41.3713  -26.4349    0.0000 O   0  0  0  0  0  0  0  0  0  0  0  0
   42.6590  -26.9343    0.0000 C   0  0  0  0  0  0  0  0  0  0  0  0
   37.3060  -22.4604    0.0000 O   0  0  0  0  0  0  0  0  0  0  0  0
   39.9309  -21.4946    0.0000 N   0  0  0  0  0  0  0  0  0  0  0  0
   43.8229  -24.7427    0.0000 O   0  0  0  0  0  0  0  0  0  0  0  0
   41.7717  -23.2487    0.0000 O   0  0  0  0  0  0  0  0  0  0  0  0
   37.9045  -24.5488    0.0000 C   0  0  0  0  0  0  0  0  0  0  0  0
   38.8042  -22.0064    0.0000 C   0  0  0  0  0  0  0  0  0  0  0  0
   39.9309  -24.7840    0.0000 C   0  0  0  0  0  0  0  0  0  0  0  0
   42.1844  -23.9709    0.0000 C   0  0  0  0  0  0  0  0  0  0  0  0
   37.7930  -25.2091    0.0000 C   0  0  0  0  0  0  0  0  0  0  0  0
   41.0577  -22.0064    0.0000 C   0  0  0  0  0  0  0  0  0  0  0  0
   45.0858  -25.4237    0.0000 C   0  0  0  0  0  0  0  0  0  0  0  0
   45.1354  -26.8476    0.0000 C   0  0  0  0  0  0  0  0  0  0  0  0
   42.2711  -27.6607    0.0000 C   0  0  0  0  0  0  0  0  0  0  0  0
   41.1443  -25.5847    0.0000 H   0  0  0  0  0  0  0  0  0  0  0  0
   39.7947  -22.9722    0.0000 H   0  0  0  0  0  0  0  0  0  0  0  0
   37.7935  -26.0263    0.0000 C   0  0  0  0  0  0  0  0  0  0  0  0
   42.5888  -23.2380    0.0000 C   0  0  0  0  0  0  0  0  0  0  0  0
   42.9881  -22.5250    0.0000 C   0  0  0  0  0  0  0  0  0  0  0  0
   43.8052  -22.5142    0.0000 C   0  0  0  0  0  0  0  0  0  0  0  0
   44.2045  -21.8012    0.0000 C   0  0  0  0  0  0  0  0  0  0  0  0
   40.6386  -21.0860    0.0000 O   0  0  0  0  0  0  0  0  0  0  0  0
   40.6386  -20.2688    0.0000 C   0  0  0  0  0  0  0  0  0  0  0  0
   45.0215  -21.7952    0.0000 C   0  0  0  0  0  0  0  0  0  0  0  0
   44.1815  -20.3931    0.0000 C   0  0  0  0  0  0  0  0  0  0  0  0
   43.7860  -21.1058    0.0000 C   0  0  0  0  0  0  0  0  0  0  0  0
   45.0028  -20.3797    0.0000 C   0  0  0  0  0  0  0  0  0  0  0  0
   45.4196  -21.0823    0.0000 C   0  0  0  0  0  0  0  0  0  0  0  0
   46.2319  -21.0727    0.0000 C   0  0  0  0  0  0  0  0  0  0  0  0
   46.6336  -20.3621    0.0000 C   0  0  0  0  0  0  0  0  0  0  0  0
   46.2169  -19.6596    0.0000 C   0  0  0  0  0  0  0  0  0  0  0  0
   45.3984  -19.6676    0.0000 N   0  0  0  0  0  0  0  0  0  0  0  0
   46.6478  -21.7761    0.0000 O   0  0  0  0  0  0  0  0  0  0  0  0
  2  1  1  0
  2  3  1  1
  5  4  1  0
  6 18  1  1
  7 16  1  0
  8  2  1  0
  2  7  1  0
  9  6  1  0
 10 14  1  0
 11 15  1  0
 12  5  1  0
 13  5  1  0
 14  8  1  0
 15  4  1  0
 16 21  1  0
 17 12  1  0
 18 10  1  0
 19  9  1  0
 20 24  1  0
 21  4  1  0
 22  6  1  0
 23 17  1  0
 24 23  1  0
 25 29  1  0
 19 26  1  1
 27  7  2  0
 28  8  2  0
 29 22  1  0
 30 11  2  0
 31 17  2  0
  9 32  1  6
 20 33  1  1
  4 34  1  6
 12 35  1  1
 14 36  1  6
 37 20  1  0
 21 38  1  6
 23 39  1  6
 40 26  1  0
 41 26  1  0
 29 42  1  1
 10 43  1  1
  5 44  1  1
 13 11  1  0
 20 10  1  0
 25 19  1  0
 38 45  1  0
 33 46  1  0
 46 47  1  0
 47 48  2  0
 48 49  1  0
 31 50  1  0
 50 51  1  0
 49 52  2  0
 52 56  1  0
 55 53  1  0
 53 54  2  0
 54 49  1  0
 55 56  2  0
 55 60  1  0
 56 57  1  0
 57 58  1  0
 58 59  2  0
 59 60  1  0
 57 61  2  0
M  END

> <chembl_id>
CHEMBL4462041

> <chembl_pref_name>
None


$$$$

     RDKit          2D

 52 55  0  0  1  0  0  0  0  0999 V2000
    3.4403   -3.6062    0.0000 C   0  0  0  0  0  0  0  0  0  0  0  0
    4.8255   -4.3962    0.0000 C   0  0  0  0  0  0  0  0  0  0  0  0
    4.2474   -4.4992    0.0000 O   0  0  0  0  0  0  0  0  0  0  0  0
    7.1667   -3.6921    0.0000 C   0  0  0  0  0  0  0  0  0  0  0  0
    4.8427   -5.8387    0.0000 C   0  0  0  0  0  0  0  0  0  0  0  0
    4.2931   -7.1324    0.0000 C   0  0  0  0  0  0  0  0  0  0  0  0
    5.5525   -4.6538    0.0000 C   0  0  0  0  0  0  0  0  0  0  0  0
    4.9801   -6.6630    0.0000 C   0  0  0  0  0  0  0  0  0  0  0  0
    7.1667   -2.8678    0.0000 C   0  0  0  0  0  0  0  0  0  0  0  0
    3.5948   -4.4134    0.0000 C   0  0  0  0  0  0  0  0  0  0  0  0
    5.5983   -5.4838    0.0000 C   0  0  0  0  0  0  0  0  0  0  0  0
    4.1386   -3.1312    0.0000 C   0  0  0  0  0  0  0  0  0  0  0  0
    3.5891   -6.7203    0.0000 O   0  0  0  0  0  0  0  0  0  0  0  0
    6.2680   -4.2302    0.0000 O   0  0  0  0  0  0  0  0  0  0  0  0
    7.8708   -2.4557    0.0000 C   0  0  0  0  0  0  0  0  0  0  0  0
    2.8392   -4.7740    0.0000 C   0  0  0  0  0  0  0  0  0  0  0  0
    2.8850   -5.5869    0.0000 C   0  0  0  0  0  0  0  0  0  0  0  0
    7.8708   -4.1043    0.0000 O   0  0  0  0  0  0  0  0  0  0  0  0
    6.7374   -6.8175    0.0000 C   0  0  0  0  0  0  0  0  0  0  0  0
    4.8484   -3.5433    0.0000 C   0  0  0  0  0  0  0  0  0  0  0  0
    3.6635   -5.9074    0.0000 C   0  0  0  0  0  0  0  0  0  0  0  0
    5.5525   -6.2566    0.0000 O   0  0  0  0  0  0  0  0  0  0  0  0
    6.7374   -7.6418    0.0000 C   0  0  0  0  0  0  0  0  0  0  0  0
    7.4415   -6.4054    0.0000 O   0  0  0  0  0  0  0  0  0  0  0  0
    7.4415   -8.0539    0.0000 C   0  0  0  0  0  0  0  0  0  0  0  0
    8.5863   -2.8678    0.0000 C   0  0  0  0  0  0  0  0  0  0  0  0
    7.8708   -1.6314    0.0000 N   0  0  0  0  0  0  0  0  0  0  0  0
    4.3275   -7.9567    0.0000 O   0  0  0  0  0  0  0  0  0  0  0  0
    8.5863   -3.6921    0.0000 C   0  0  0  0  0  0  0  0  0  0  0  0
    8.1570   -7.6418    0.0000 C   0  0  0  0  0  0  0  0  0  0  0  0
    8.1570   -6.8175    0.0000 C   0  0  0  0  0  0  0  0  0  0  0  0
    6.4569   -2.4557    0.0000 O   0  0  0  0  0  0  0  0  0  0  0  0
    2.0493   -4.5565    0.0000 O   0  0  0  0  0  0  0  0  0  0  0  0
    4.5222   -5.4838    0.0000 C   0  0  0  0  0  0  0  0  0  0  0  0
    8.0196   -8.6264    0.0000 O   0  0  0  0  0  0  0  0  0  0  0  0
    5.6899   -7.0751    0.0000 C   0  0  0  0  0  0  0  0  0  0  0  0
    2.8850   -4.0012    0.0000 C   0  0  0  0  0  0  0  0  0  0  0  0
    6.3023   -5.8960    0.0000 C   0  0  0  0  0  0  0  0  0  0  0  0
    4.1043   -2.3069    0.0000 C   0  0  0  0  0  0  0  0  0  0  0  0
    2.1695   -6.0104    0.0000 C   0  0  0  0  0  0  0  0  0  0  0  0
    2.9537   -6.3081    0.0000 C   0  0  0  0  0  0  0  0  0  0  0  0
    6.8576   -8.6264    0.0000 C   0  0  0  0  0  0  0  0  0  0  0  0
    8.5863   -1.2079    0.0000 C   0  0  0  0  0  0  0  0  0  0  0  0
    7.1610   -1.2193    0.0000 C   0  0  0  0  0  0  0  0  0  0  0  0
    9.3075   -4.1043    0.0000 C   0  0  0  0  0  0  0  0  0  0  0  0
    8.8782   -6.3940    0.0000 C   0  0  0  0  0  0  0  0  0  0  0  0
    7.8021   -9.4164    0.0000 C   0  0  0  0  0  0  0  0  0  0  0  0
    2.7304   -7.1095    0.0000 C   0  0  0  0  0  0  0  0  0  0  0  0
    9.3075   -1.6200    0.0000 C   0  0  0  0  0  0  0  0  0  0  0  0
    1.6142   -5.4151    0.0000 H   0  0  0  0  0  0  0  0  0  0  0  0
    6.9510   -6.0206    0.0000 H   0  0  0  0  0  0  0  0  0  0  0  0
    6.4490   -3.2853    0.0000 H   0  0  0  0  0  0  0  0  0  0  0  0
  2  3  1  0
  3  1  1  0
  4 14  1  0
  5 11  1  0
  6 13  1  0
  7  2  1  0
  8  5  1  0
  9  4  1  0
 10  1  1  0
 11  7  1  0
 12  1  2  0
 13 21  1  0
  7 14  1  6
 15  9  1  0
 16 10  1  0
 17 16  1  0
 18  4  1  0
 19 22  1  0
 20 12  1  0
 21 17  1  0
  5 22  1  1
 23 19  1  0
 24 19  1  0
 25 23  1  0
 26 29  1  0
 15 27  1  1
 28  6  2  0
 29 18  1  0
 30 31  1  0
 31 24  1  0
  9 32  1  6
 16 33  1  6
  2 34  1  1
 25 35  1  6
  8 36  1  1
 10 37  1  6
 11 38  1  1
 39 12  1  0
 17 40  1  0
 21 41  1  1
 25 42  1  0
 43 27  1  0
 44 27  1  0
 29 45  1  1
 31 46  1  1
 47 35  1  0
 48 41  1  0
 49 43  1  0
 17 50  1  1
 20  2  1  0
  8  6  1  0
 15 26  1  0
 30 25  1  0
 19 51  1  1
  4 52  1  6
M  END

> <chembl_id>
CHEMBL300049

> <chembl_pref_name>
ALEMCINAL


$$$$

     RDKit          2D

 85 90  0  0  0  0  0  0  0  0999 V2000
   -2.1541   -1.2958    0.0000 C   0  0  0  0  0  0  0  0  0  0  0  0
   -1.4397   -0.8833    0.0000 C   0  0  0  0  0  0  0  0  0  0  0  0
   -0.7252   -1.2958    0.0000 C   0  0  0  0  0  0  0  0  0  0  0  0
   -1.4397   -0.0583    0.0000 O   0  0  0  0  0  0  0  0  0  0  0  0
   -0.7252   -2.1208    0.0000 C   0  0  0  0  0  0  0  0  0  0  0  0
   -2.1541   -2.1208    0.0000 C   0  0  0  0  0  0  0  0  0  0  0  0
   -2.8686   -2.5333    0.0000 C   0  0  0  0  0  0  0  0  0  0  0  0
   -2.8686   -3.3583    0.0000 C   0  0  0  0  0  0  0  0  0  0  0  0
   -3.5831   -3.7708    0.0000 C   0  0  0  0  0  0  0  0  0  0  0  0
   -2.1541   -3.7708    0.0000 O   0  0  0  0  0  0  0  0  0  0  0  0
   -2.1541   -4.5958    0.0000 C   0  0  0  0  0  0  0  0  0  0  0  0
   -2.8686   -5.0083    0.0000 O   0  0  0  0  0  0  0  0  0  0  0  0
   -1.4397   -5.0083    0.0000 C   0  0  0  0  0  0  0  0  0  0  0  0
   -1.4397   -5.8333    0.0000 C   0  0  0  0  0  0  0  0  0  0  0  0
   -0.7252   -4.5958    0.0000 C   0  0  0  0  0  0  0  0  0  0  0  0
   -0.7252   -3.7708    0.0000 C   0  0  0  0  0  0  0  0  0  0  0  0
   -0.0107   -3.3583    0.0000 C   0  0  0  0  0  0  0  0  0  0  0  0
   -1.4397   -3.3583    0.0000 C   0  0  0  0  0  0  0  0  0  0  0  0
   -0.0107   -2.5333    0.0000 C   0  0  0  0  0  0  0  0  0  0  0  0
   -2.8686   -0.8833    0.0000 C   0  0  0  0  0  0  0  0  0  0  0  0
   -0.0107   -0.8833    0.0000 C   0  0  0  0  0  0  0  0  0  0  0  0
   -1.4397   -2.5333    0.0000 N   0  0  0  0  0  0  0  0  0  0  0  0
   -3.5875   -2.9375    0.0000 C   0  0  0  0  0  0  0  0  0  0  0  0
   -3.2875   -1.8125    0.0000 O   0  0  0  0  0  0  0  0  0  0  0  0
   -3.5831   -4.5958    0.0000 C   0  0  0  0  0  0  0  0  0  0  0  0
   -0.0107   -5.0083    0.0000 O   0  0  0  0  0  0  0  0  0  0  0  0
    0.7038   -3.7708    0.0000 O   0  0  0  0  0  0  0  0  0  0  0  0
    1.4182   -3.3583    0.0000 C   0  0  0  0  0  0  0  0  0  0  0  0
    2.1277   -3.7721    0.0000 C   0  0  0  0  0  0  0  0  0  0  0  0
    2.8401   -3.3632    0.0000 C   0  0  0  0  0  0  0  0  0  0  0  0
    2.8443   -2.5378    0.0000 C   0  0  0  0  0  0  0  0  0  0  0  0
    2.1300   -2.1231    0.0000 C   0  0  0  0  0  0  0  0  0  0  0  0
    1.4115   -2.5338    0.0000 O   0  0  0  0  0  0  0  0  0  0  0  0
    0.5501   -2.8618    0.0000 H   0  0  0  0  0  0  0  0  0  0  0  0
    0.7000   -2.1125    0.0000 O   0  0  0  0  0  0  0  0  0  0  0  0
   -0.0166   -1.7041    0.0000 C   0  0  0  0  0  0  0  0  0  0  0  0
    2.1249   -4.5971    0.0000 O   0  0  0  0  0  0  0  0  0  0  0  0
    3.5530   -3.7784    0.0000 N   0  0  0  0  0  0  0  0  0  0  0  0
    2.1328   -1.2981    0.0000 C   0  0  0  0  0  0  0  0  0  0  0  0
    3.5499   -4.6033    0.0000 C   0  0  0  0  0  0  0  0  0  0  0  0
    4.2690   -3.3686    0.0000 C   0  0  0  0  0  0  0  0  0  0  0  0
   -0.0107   -5.8333    0.0000 C   0  0  0  0  0  0  0  0  0  0  0  0
   -0.7240   -6.2406    0.0000 O   0  0  0  0  0  0  0  0  0  0  0  0
   -0.7260   -7.0620    0.0000 C   0  0  0  0  0  0  0  0  0  0  0  0
   -0.0133   -7.4784    0.0000 C   0  0  0  0  0  0  0  0  0  0  0  0
    0.7030   -7.0671    0.0000 C   0  0  0  0  0  0  0  0  0  0  0  0
    0.7066   -6.2395    0.0000 C   0  0  0  0  0  0  0  0  0  0  0  0
   -1.4420   -7.4718    0.0000 C   0  0  0  0  0  0  0  0  0  0  0  0
    1.1084   -7.7791    0.0000 O   0  0  0  0  0  0  0  0  0  0  0  0
   -0.8755   -5.3312    0.0000 H   0  0  0  0  0  0  0  0  0  0  0  0
    1.4203   -5.8256    0.0000 O   0  0  0  0  0  0  0  0  0  0  0  0
    2.1355   -6.2367    0.0000 C   0  0  0  0  0  0  0  0  0  0  0  0
    2.8492   -5.8228    0.0000 C   0  0  0  0  0  0  0  0  0  0  0  0
    2.1372   -7.0617    0.0000 O   0  0  0  0  0  0  0  0  0  0  0  0
    1.4125   -6.6500    0.0000 C   0  0  0  0  0  0  0  0  0  0  0  0
    0.6916   -8.4911    0.0000 C   0  0  0  0  0  0  0  0  0  0  0  0
    3.5645   -6.2339    0.0000 C   0  0  0  0  0  0  0  0  0  0  0  0
    4.2781   -5.8200    0.0000 O   0  0  0  0  0  0  0  0  0  0  0  0
    4.9934   -6.2311    0.0000 C   0  0  0  0  0  0  0  0  0  0  0  0
    5.7071   -5.8172    0.0000 C   0  0  0  0  0  0  0  0  0  0  0  0
    6.4224   -6.2283    0.0000 O   0  0  0  0  0  0  0  0  0  0  0  0
    7.1360   -5.8144    0.0000 C   0  0  0  0  0  0  0  0  0  0  0  0
    7.8513   -6.2255    0.0000 C   0  0  0  0  0  0  0  0  0  0  0  0
    8.5650   -5.8116    0.0000 C   0  0  0  0  0  0  0  0  0  0  0  0
    9.2802   -6.2226    0.0000 C   0  0  0  0  0  0  0  0  0  0  0  0
    9.2780   -7.0469    0.0000 C   0  0  0  0  0  0  0  0  0  0  0  0
    9.9925   -7.4579    0.0000 C   0  0  0  0  0  0  0  0  0  0  0  0
    9.9878   -5.8074    0.0000 C   0  0  0  0  0  0  0  0  0  0  0  0
   10.7028   -6.2147    0.0000 C   0  0  0  0  0  0  0  0  0  0  0  0
   10.7039   -7.0414    0.0000 C   0  0  0  0  0  0  0  0  0  0  0  0
   11.4165   -7.4516    0.0000 N   0  0  0  0  0  0  0  0  0  0  0  0
   12.1325   -7.0396    0.0000 C   0  0  0  0  0  0  0  0  0  0  0  0
   12.1314   -6.2128    0.0000 C   0  0  0  0  0  0  0  0  0  0  0  0
   11.4143   -5.7981    0.0000 C   0  0  0  0  0  0  0  0  0  0  0  0
   11.4164   -8.2766    0.0000 C   0  0  0  0  0  0  0  0  0  0  0  0
   10.7019   -8.6890    0.0000 C   0  0  0  0  0  0  0  0  0  0  0  0
   11.4121   -4.9731    0.0000 O   0  0  0  0  0  0  0  0  0  0  0  0
   12.8458   -5.8001    0.0000 C   0  0  0  0  0  0  0  0  0  0  0  0
   13.5604   -6.2124    0.0000 O   0  0  0  0  0  0  0  0  0  0  0  0
   12.8456   -4.9751    0.0000 O   0  0  0  0  0  0  0  0  0  0  0  0
    0.6909   -1.2875    0.0000 C   0  0  0  0  0  0  0  0  0  0  0  0
   -2.3833   -2.5292    0.0000 C   0  0  0  0  0  0  0  0  0  0  0  0
   -2.3822   -3.2833    0.0000 O   0  0  0  0  0  0  0  0  0  0  0  0
   -1.4458   -1.7083    0.0000 C   0  0  0  0  0  0  0  0  0  0  0  0
   -1.2881   -1.6208    0.0000 H   0  0  0  0  0  0  0  0  0  0  0  0
  1 20  1  1
 38 41  1  0
  2  3  1  0
 26 42  1  0
 42 43  1  0
  3 21  1  6
 10 11  1  0
  6 22  1  0
  1  6  1  0
  7 23  1  6
 42 47  1  0
 43 44  1  0
 44 45  1  0
 45 46  1  0
 46 47  1  0
 11 12  2  0
 44 48  1  6
  7 24  1  0
 46 49  1  0
  1  2  1  0
 42 50  1  6
  9 25  1  0
 47 51  1  6
 11 13  1  0
 51 52  1  0
 15 26  1  6
 52 53  1  0
  6  7  1  0
 52 54  2  0
 17 27  1  6
 46 55  1  6
 13 14  1  1
 49 56  1  0
 27 28  1  0
 53 57  1  0
 28 29  1  0
 57 58  1  0
  2  4  2  0
 58 59  1  0
 13 15  1  0
 59 60  1  0
  7  8  1  0
 60 61  1  0
 15 16  1  0
 61 62  1  0
 62 63  1  0
 28 33  1  0
 63 64  1  0
 29 30  1  0
 64 65  1  0
 30 31  1  0
 65 66  2  0
 31 32  1  0
 66 67  1  0
 67 70  2  0
 32 33  1  0
 69 68  2  0
 68 65  1  0
 69 70  1  0
 16 17  1  0
 28 34  1  1
  8  9  1  6
 19 35  1  0
 16 18  1  6
 19 36  1  6
 69 74  1  0
 70 71  1  0
 71 72  1  0
 72 73  2  0
 73 74  1  0
  3  5  1  0
 71 75  1  0
 29 37  1  1
 75 76  1  0
 17 19  1  0
 74 77  2  0
 30 38  1  6
 73 78  1  0
 19  5  1  0
 78 79  1  0
 32 39  1  6
 78 80  2  0
 35 81  1  0
 24 82  1  0
  8 10  1  0
 82 83  2  0
 82 22  1  0
 38 40  1  0
 22 84  1  0
  6 85  1  6
M  END

> <chembl_id>
CHEMBL1222178

> <chembl_pref_name>
None


$$$$

     RDKit          2D

 84 89  0  0  0  0  0  0  0  0999 V2000
   -2.1541   -1.2958    0.0000 C   0  0  0  0  0  0  0  0  0  0  0  0
   -1.4397   -0.8833    0.0000 C   0  0  0  0  0  0  0  0  0  0  0  0
   -0.7252   -1.2958    0.0000 C   0  0  0  0  0  0  0  0  0  0  0  0
   -1.4397   -0.0583    0.0000 O   0  0  0  0  0  0  0  0  0  0  0  0
   -0.7252   -2.1208    0.0000 C   0  0  0  0  0  0  0  0  0  0  0  0
   -2.1541   -2.1208    0.0000 C   0  0  0  0  0  0  0  0  0  0  0  0
   -2.8686   -2.5333    0.0000 C   0  0  0  0  0  0  0  0  0  0  0  0
   -2.8686   -3.3583    0.0000 C   0  0  0  0  0  0  0  0  0  0  0  0
   -3.5831   -3.7708    0.0000 C   0  0  0  0  0  0  0  0  0  0  0  0
   -2.1541   -3.7708    0.0000 O   0  0  0  0  0  0  0  0  0  0  0  0
   -2.1541   -4.5958    0.0000 C   0  0  0  0  0  0  0  0  0  0  0  0
   -2.8686   -5.0083    0.0000 O   0  0  0  0  0  0  0  0  0  0  0  0
   -1.4397   -5.0083    0.0000 C   0  0  0  0  0  0  0  0  0  0  0  0
   -1.4397   -5.8333    0.0000 C   0  0  0  0  0  0  0  0  0  0  0  0
   -0.7252   -4.5958    0.0000 C   0  0  0  0  0  0  0  0  0  0  0  0
   -0.7252   -3.7708    0.0000 C   0  0  0  0  0  0  0  0  0  0  0  0
   -0.0107   -3.3583    0.0000 C   0  0  0  0  0  0  0  0  0  0  0  0
   -1.4397   -3.3583    0.0000 C   0  0  0  0  0  0  0  0  0  0  0  0
   -0.0107   -2.5333    0.0000 C   0  0  0  0  0  0  0  0  0  0  0  0
   -2.8686   -0.8833    0.0000 C   0  0  0  0  0  0  0  0  0  0  0  0
   -0.0107   -0.8833    0.0000 C   0  0  0  0  0  0  0  0  0  0  0  0
   -1.4397   -2.5333    0.0000 N   0  0  0  0  0  0  0  0  0  0  0  0
   -3.5875   -2.9375    0.0000 C   0  0  0  0  0  0  0  0  0  0  0  0
   -3.2875   -1.8125    0.0000 O   0  0  0  0  0  0  0  0  0  0  0  0
   -3.5831   -4.5958    0.0000 C   0  0  0  0  0  0  0  0  0  0  0  0
   -0.0107   -5.0083    0.0000 O   0  0  0  0  0  0  0  0  0  0  0  0
    0.7038   -3.7708    0.0000 O   0  0  0  0  0  0  0  0  0  0  0  0
    1.4182   -3.3583    0.0000 C   0  0  0  0  0  0  0  0  0  0  0  0
    2.1277   -3.7721    0.0000 C   0  0  0  0  0  0  0  0  0  0  0  0
    2.8401   -3.3632    0.0000 C   0  0  0  0  0  0  0  0  0  0  0  0
    2.8443   -2.5378    0.0000 C   0  0  0  0  0  0  0  0  0  0  0  0
    2.1300   -2.1231    0.0000 C   0  0  0  0  0  0  0  0  0  0  0  0
    1.4115   -2.5338    0.0000 O   0  0  0  0  0  0  0  0  0  0  0  0
    0.5501   -2.8618    0.0000 H   0  0  0  0  0  0  0  0  0  0  0  0
    0.7000   -2.1125    0.0000 O   0  0  0  0  0  0  0  0  0  0  0  0
   -0.0166   -1.7041    0.0000 C   0  0  0  0  0  0  0  0  0  0  0  0
    2.1249   -4.5971    0.0000 O   0  0  0  0  0  0  0  0  0  0  0  0
    3.5530   -3.7784    0.0000 N   0  0  0  0  0  0  0  0  0  0  0  0
    2.1328   -1.2981    0.0000 C   0  0  0  0  0  0  0  0  0  0  0  0
    3.5499   -4.6033    0.0000 C   0  0  0  0  0  0  0  0  0  0  0  0
    4.2690   -3.3686    0.0000 C   0  0  0  0  0  0  0  0  0  0  0  0
   -0.0107   -5.8333    0.0000 C   0  0  0  0  0  0  0  0  0  0  0  0
   -0.7240   -6.2406    0.0000 O   0  0  0  0  0  0  0  0  0  0  0  0
   -0.7260   -7.0620    0.0000 C   0  0  0  0  0  0  0  0  0  0  0  0
   -0.0133   -7.4784    0.0000 C   0  0  0  0  0  0  0  0  0  0  0  0
    0.7030   -7.0671    0.0000 C   0  0  0  0  0  0  0  0  0  0  0  0
    0.7066   -6.2395    0.0000 C   0  0  0  0  0  0  0  0  0  0  0  0
   -1.4420   -7.4718    0.0000 C   0  0  0  0  0  0  0  0  0  0  0  0
    1.1084   -7.7791    0.0000 O   0  0  0  0  0  0  0  0  0  0  0  0
   -0.8755   -5.3312    0.0000 H   0  0  0  0  0  0  0  0  0  0  0  0
    1.4203   -5.8256    0.0000 O   0  0  0  0  0  0  0  0  0  0  0  0
    2.1355   -6.2367    0.0000 C   0  0  0  0  0  0  0  0  0  0  0  0
    2.8492   -5.8228    0.0000 C   0  0  0  0  0  0  0  0  0  0  0  0
    2.1372   -7.0617    0.0000 O   0  0  0  0  0  0  0  0  0  0  0  0
    1.4125   -6.6500    0.0000 C   0  0  0  0  0  0  0  0  0  0  0  0
    0.6916   -8.4911    0.0000 C   0  0  0  0  0  0  0  0  0  0  0  0
    3.5645   -6.2339    0.0000 C   0  0  0  0  0  0  0  0  0  0  0  0
    4.2781   -5.8200    0.0000 O   0  0  0  0  0  0  0  0  0  0  0  0
    4.9934   -6.2311    0.0000 C   0  0  0  0  0  0  0  0  0  0  0  0
    5.7071   -5.8172    0.0000 C   0  0  0  0  0  0  0  0  0  0  0  0
    6.4224   -6.2283    0.0000 O   0  0  0  0  0  0  0  0  0  0  0  0
    7.1360   -5.8144    0.0000 C   0  0  0  0  0  0  0  0  0  0  0  0
    7.8513   -6.2255    0.0000 C   0  0  0  0  0  0  0  0  0  0  0  0
    8.5650   -5.8116    0.0000 C   0  0  0  0  0  0  0  0  0  0  0  0
    9.2802   -6.2226    0.0000 C   0  0  0  0  0  0  0  0  0  0  0  0
    9.2780   -7.0469    0.0000 C   0  0  0  0  0  0  0  0  0  0  0  0
    9.9925   -7.4579    0.0000 C   0  0  0  0  0  0  0  0  0  0  0  0
    9.9878   -5.8074    0.0000 C   0  0  0  0  0  0  0  0  0  0  0  0
   10.7028   -6.2147    0.0000 C   0  0  0  0  0  0  0  0  0  0  0  0
   10.7039   -7.0414    0.0000 C   0  0  0  0  0  0  0  0  0  0  0  0
   11.4165   -7.4516    0.0000 N   0  0  0  0  0  0  0  0  0  0  0  0
   12.1325   -7.0396    0.0000 C   0  0  0  0  0  0  0  0  0  0  0  0
   12.1314   -6.2128    0.0000 C   0  0  0  0  0  0  0  0  0  0  0  0
   11.4143   -5.7981    0.0000 C   0  0  0  0  0  0  0  0  0  0  0  0
   11.4164   -8.2766    0.0000 C   0  0  0  0  0  0  0  0  0  0  0  0
   10.7019   -8.6890    0.0000 C   0  0  0  0  0  0  0  0  0  0  0  0
   11.4121   -4.9731    0.0000 O   0  0  0  0  0  0  0  0  0  0  0  0
   12.8458   -5.8001    0.0000 C   0  0  0  0  0  0  0  0  0  0  0  0
   13.5604   -6.2124    0.0000 O   0  0  0  0  0  0  0  0  0  0  0  0
   12.8456   -4.9751    0.0000 O   0  0  0  0  0  0  0  0  0  0  0  0
    0.6909   -1.2875    0.0000 C   0  0  0  0  0  0  0  0  0  0  0  0
   -2.3833   -2.5292    0.0000 C   0  0  0  0  0  0  0  0  0  0  0  0
   -2.3822   -3.2833    0.0000 O   0  0  0  0  0  0  0  0  0  0  0  0
   -1.2881   -1.6208    0.0000 H   0  0  0  0  0  0  0  0  0  0  0  0
  1 20  1  1
 38 41  1  0
  2  3  1  0
 26 42  1  0
 42 43  1  0
  3 21  1  6
 10 11  1  0
  6 22  1  0
  1  6  1  0
  7 23  1  6
 42 47  1  0
 43 44  1  0
 44 45  1  0
 45 46  1  0
 46 47  1  0
 11 12  2  0
 44 48  1  6
  7 24  1  0
 46 49  1  0
  1  2  1  0
 42 50  1  6
  9 25  1  0
 47 51  1  6
 11 13  1  0
 51 52  1  0
 15 26  1  6
 52 53  1  0
  6  7  1  0
 52 54  2  0
 17 27  1  6
 46 55  1  6
 13 14  1  1
 49 56  1  0
 27 28  1  0
 53 57  1  0
 28 29  1  0
 57 58  1  0
  2  4  2  0
 58 59  1  0
 13 15  1  0
 59 60  1  0
  7  8  1  0
 60 61  1  0
 15 16  1  0
 61 62  1  0
 62 63  1  0
 28 33  1  0
 63 64  1  0
 29 30  1  0
 64 65  1  0
 30 31  1  0
 65 66  2  0
 31 32  1  0
 66 67  1  0
 67 70  2  0
 32 33  1  0
 69 68  2  0
 68 65  1  0
 69 70  1  0
 16 17  1  0
 28 34  1  1
  8  9  1  6
 19 35  1  0
 16 18  1  6
 19 36  1  6
 69 74  1  0
 70 71  1  0
 71 72  1  0
 72 73  2  0
 73 74  1  0
  3  5  1  0
 71 75  1  0
 29 37  1  1
 75 76  1  0
 17 19  1  0
 74 77  2  0
 30 38  1  6
 73 78  1  0
 19  5  1  0
 78 79  1  0
 32 39  1  6
 78 80  2  0
 35 81  1  0
 24 82  1  0
  8 10  1  0
 82 83  2  0
 82 22  1  0
 38 40  1  0
  6 84  1  6
M  END

> <chembl_id>
CHEMBL1222180

> <chembl_pref_name>
None


$$$$

     RDKit          2D

 52 55  0  0  1  0  0  0  0  0999 V2000
   -2.1625    1.5458    0.0000 C   0  0  0  0  0  0  0  0  0  0  0  0
   -0.8333    0.7583    0.0000 C   0  0  0  0  0  0  0  0  0  0  0  0
   -1.6125    0.7375    0.0000 O   0  0  0  0  0  0  0  0  0  0  0  0
    1.1167    1.1333    0.0000 C   0  0  0  0  0  0  0  0  0  0  0  0
   -0.8583   -0.8125    0.0000 C   0  0  0  0  0  0  0  0  0  0  0  0
   -1.5208   -1.9542    0.0000 C   0  0  0  0  0  0  0  0  0  0  0  0
    1.1167    1.9125    0.0000 C   0  0  0  0  0  0  0  0  0  0  0  0
    1.7875    2.3208    0.0000 C   0  0  0  0  0  0  0  0  0  0  0  0
   -0.2083    0.3708    0.0000 C   0  0  0  0  0  0  0  0  0  0  0  0
   -2.8625   -0.4167    0.0000 C   0  0  0  0  0  0  0  0  0  0  0  0
   -0.8583   -1.5667    0.0000 C   0  0  0  0  0  0  0  0  0  0  0  0
   -2.1625    0.7583    0.0000 C   0  0  0  0  0  0  0  0  0  0  0  0
   -0.2083   -0.4167    0.0000 C   0  0  0  0  0  0  0  0  0  0  0  0
   -1.5000    1.9208    0.0000 C   0  0  0  0  0  0  0  0  0  0  0  0
   -2.8625    0.3625    0.0000 C   0  0  0  0  0  0  0  0  0  0  0  0
   -2.1750   -1.5792    0.0000 O   0  0  0  0  0  0  0  0  0  0  0  0
    0.4667    0.7375    0.0000 O   0  0  0  0  0  0  0  0  0  0  0  0
    1.3792   -2.7917    0.0000 C   0  0  0  0  0  0  0  0  0  0  0  0
    0.7000   -1.6125    0.0000 C   0  0  0  0  0  0  0  0  0  0  0  0
    0.7000   -2.3917    0.0000 C   0  0  0  0  0  0  0  0  0  0  0  0
    1.8000    0.7375    0.0000 O   0  0  0  0  0  0  0  0  0  0  0  0
    1.3792   -1.1917    0.0000 O   0  0  0  0  0  0  0  0  0  0  0  0
    1.8000    3.1083    0.0000 N   0  0  0  0  0  0  0  0  0  0  0  0
   -2.1750   -0.8125    0.0000 C   0  0  0  0  0  0  0  0  0  0  0  0
    2.0375   -2.3917    0.0000 C   0  0  0  0  0  0  0  0  0  0  0  0
   -0.8333    1.5458    0.0000 C   0  0  0  0  0  0  0  0  0  0  0  0
   -0.0083   -1.2542    0.0000 O   0  0  0  0  0  0  0  0  0  0  0  0
    2.0375   -1.5917    0.0000 C   0  0  0  0  0  0  0  0  0  0  0  0
    2.4542    1.9333    0.0000 C   0  0  0  0  0  0  0  0  0  0  0  0
   -1.5208   -2.7167    0.0000 O   0  0  0  0  0  0  0  0  0  0  0  0
    2.4542    1.1333    0.0000 C   0  0  0  0  0  0  0  0  0  0  0  0
   -3.5083   -0.0417    0.0000 O   0  0  0  0  0  0  0  0  0  0  0  0
    0.4542    2.2708    0.0000 O   0  0  0  0  0  0  0  0  0  0  0  0
    2.4542    3.5250    0.0000 C   0  0  0  0  0  0  0  0  0  0  0  0
   -3.5333    0.7375    0.0000 O   0  0  0  0  0  0  0  0  0  0  0  0
    1.9917   -3.3417    0.0000 O   0  0  0  0  0  0  0  0  0  0  0  0
    2.7167   -2.7417    0.0000 O   0  0  0  0  0  0  0  0  0  0  0  0
   -0.2875    1.3333    0.0000 C   0  0  0  0  0  0  0  0  0  0  0  0
   -3.3833   -0.8667    0.0000 C   0  0  0  0  0  0  0  0  0  0  0  0
   -0.2333   -1.9750    0.0000 C   0  0  0  0  0  0  0  0  0  0  0  0
   -2.8333    1.2000    0.0000 C   0  0  0  0  0  0  0  0  0  0  0  0
    0.4667   -0.8000    0.0000 C   0  0  0  0  0  0  0  0  0  0  0  0
   -1.5000    2.7083    0.0000 C   0  0  0  0  0  0  0  0  0  0  0  0
    0.7542   -3.3417    0.0000 C   0  0  0  0  0  0  0  0  0  0  0  0
    1.1167    3.5000    0.0000 C   0  0  0  0  0  0  0  0  0  0  0  0
   -2.9458   -1.2167    0.0000 C   0  0  0  0  0  0  0  0  0  0  0  0
    2.7000   -1.1792    0.0000 C   0  0  0  0  0  0  0  0  0  0  0  0
    3.1167    0.7208    0.0000 C   0  0  0  0  0  0  0  0  0  0  0  0
    3.1417    3.1458    0.0000 C   0  0  0  0  0  0  0  0  0  0  0  0
    2.4542    4.2792    0.0000 C   0  0  0  0  0  0  0  0  0  0  0  0
    2.7750   -3.3417    0.0000 C   0  0  0  0  0  0  0  0  0  0  0  0
   -2.9458   -1.9375    0.0000 C   0  0  0  0  0  0  0  0  0  0  0  0
  2  3  1  0
  3  1  1  0
  4 17  1  1
  5 13  1  0
  6 16  1  0
  7  4  1  0
  8  7  1  0
  9  2  1  0
 10 15  1  0
 11  5  1  0
 12  1  1  0
 13  9  1  0
 14  1  2  0
 15 12  1  0
 16 24  1  0
  9 17  1  6
 18 20  1  0
 19 27  1  6
 20 19  1  0
 21  4  1  0
 22 19  1  0
  8 23  1  1
 24 10  1  0
 25 28  1  0
 26 14  1  0
  5 27  1  1
 28 22  1  0
 29 31  1  0
 30  6  2  0
 31 21  1  0
 32 10  1  0
  7 33  1  6
 34 23  1  0
 15 35  1  6
 36 18  1  0
 25 37  1  6
  2 38  1  1
 10 39  1  6
 11 40  1  1
 12 41  1  6
 13 42  1  1
 43 14  1  0
 18 44  1  1
 45 23  1  0
 24 46  1  1
 28 47  1  1
 31 48  1  1
 49 34  1  0
 50 34  1  0
 51 36  1  0
 52 46  1  0
  2 26  1  0
 11  6  1  0
  8 29  1  0
 18 25  1  0
M  END

> <chembl_id>
CHEMBL2103968

> <chembl_pref_name>
IDREMCINAL


$$$$

     RDKit          2D

 61 63  0  0  0  0  0  0  0  0999 V2000
    9.0874   -6.5939    0.0000 C   0  0  0  0  0  0  0  0  0  0  0  0
    9.0874   -5.8922    0.0000 C   0  0  0  0  0  0  0  0  0  0  0  0
    9.6973   -5.5366    0.0000 C   0  0  0  0  0  0  0  0  0  0  0  0
   10.3176   -5.8819    0.0000 O   0  0  0  0  0  0  0  0  0  0  0  0
    9.6973   -4.8750    0.0000 O   0  0  0  0  0  0  0  0  0  0  0  0
    8.4533   -6.9432    0.0000 C   0  0  0  0  0  0  0  0  0  0  0  0
    7.8703   -6.5939    0.0000 O   0  0  0  0  0  0  0  0  0  0  0  0
    8.4533   -7.6145    0.0000 O   0  0  0  0  0  0  0  0  0  0  0  0
    2.3336   -5.3948    0.0000 C   0  0  0  0  0  0  0  0  0  0  0  0
    2.9012   -5.7458    0.0000 C   0  0  0  0  0  0  0  0  0  0  0  0
    1.6220   -5.3948    0.0000 O   0  0  0  0  0  0  0  0  0  0  0  0
    2.3336   -4.6935    0.0000 C   0  0  0  0  0  0  0  0  0  0  0  0
    2.8288   -4.8763    0.0000 C   0  0  0  0  0  0  0  0  0  0  0  0
    2.9012   -6.4678    0.0000 C   0  0  0  0  0  0  0  0  0  0  0  0
    3.5232   -5.4155    0.0000 O   0  0  0  0  0  0  0  0  0  0  0  0
    1.1165   -4.6935    0.0000 C   0  0  0  0  0  0  0  0  0  0  0  0
    1.7220   -4.3398    0.0000 C   0  0  0  0  0  0  0  0  0  0  0  0
    2.3164   -6.8216    0.0000 C   0  0  0  0  0  0  0  0  0  0  0  0
    3.5128   -6.8112    0.0000 C   0  0  0  0  0  0  0  0  0  0  0  0
    4.1141   -5.0617    0.0000 C   0  0  0  0  0  0  0  0  0  0  0  0
    1.1165   -5.3948    0.0000 C   0  0  0  0  0  0  0  0  0  0  0  0
    1.7220   -3.6385    0.0000 C   0  0  0  0  0  0  0  0  0  0  0  0
    3.0866   -7.2174    0.0000 O   0  0  0  0  0  0  0  0  0  0  0  0
    2.3164   -7.5125    0.0000 C   0  0  0  0  0  0  0  0  0  0  0  0
    4.1141   -4.3501    0.0000 C   0  0  0  0  0  0  0  0  0  0  0  0
    4.7299   -5.4155    0.0000 O   0  0  0  0  0  0  0  0  0  0  0  0
    0.4876   -5.7561    0.0000 C   0  0  0  0  0  0  0  0  0  0  0  0
    0.5152   -4.9928    0.0000 C   0  0  0  0  0  0  0  0  0  0  0  0
    3.7293   -7.5539    0.0000 C   0  0  0  0  0  0  0  0  0  0  0  0
    1.7047   -7.8600    0.0000 C   0  0  0  0  0  0  0  0  0  0  0  0
    2.8805   -7.8807    0.0000 C   0  0  0  0  0  0  0  0  0  0  0  0
    4.7195   -3.9819    0.0000 C   0  0  0  0  0  0  0  0  0  0  0  0
    3.5025   -4.0233    0.0000 O   0  0  0  0  0  0  0  0  0  0  0  0
    5.3208   -5.0617    0.0000 C   0  0  0  0  0  0  0  0  0  0  0  0
    0.4876   -6.4678    0.0000 C   0  0  0  0  0  0  0  0  0  0  0  0
   -0.1178   -5.4155    0.0000 O   0  0  0  0  0  0  0  0  0  0  0  0
    3.7293   -8.2552    0.0000 C   0  0  0  0  0  0  0  0  0  0  0  0
    4.3409   -7.1794    0.0000 O   0  0  0  0  0  0  0  0  0  0  0  0
    1.1096   -7.5228    0.0000 O   0  0  0  0  0  0  0  0  0  0  0  0
    1.7047   -8.5613    0.0000 O   0  0  0  0  0  0  0  0  0  0  0  0
    5.3208   -4.3294    0.0000 C   0  0  0  0  0  0  0  0  0  0  0  0
    4.7299   -3.2599    0.0000 N   0  0  0  0  0  0  0  0  0  0  0  0
    5.9263   -5.4259    0.0000 C   0  0  0  0  0  0  0  0  0  0  0  0
    1.1096   -6.8319    0.0000 C   0  0  0  0  0  0  0  0  0  0  0  0
   -0.0971   -6.1203    0.0000 O   0  0  0  0  0  0  0  0  0  0  0  0
    0.0236   -6.8698    0.0000 C   0  0  0  0  0  0  0  0  0  0  0  0
    4.3409   -8.6130    0.0000 C   0  0  0  0  0  0  0  0  0  0  0  0
    4.9361   -7.5332    0.0000 C   0  0  0  0  0  0  0  0  0  0  0  0
    5.3311   -2.8958    0.0000 C   0  0  0  0  0  0  0  0  0  0  0  0
    4.1141   -2.9061    0.0000 C   0  0  0  0  0  0  0  0  0  0  0  0
    0.4152   -7.1898    0.0000 C   0  0  0  0  0  0  0  0  0  0  0  0
   -0.6984   -6.4781    0.0000 C   0  0  0  0  0  0  0  0  0  0  0  0
    4.9361   -8.2552    0.0000 C   0  0  0  0  0  0  0  0  0  0  0  0
    4.8947   -9.1289    0.0000 O   0  0  0  0  0  0  0  0  0  0  0  0
    3.7879   -9.1289    0.0000 C   0  0  0  0  0  0  0  0  0  0  0  0
    5.5477   -7.1587    0.0000 C   0  0  0  0  0  0  0  0  0  0  0  0
    5.9435   -3.2331    0.0000 C   0  0  0  0  0  0  0  0  0  0  0  0
    5.3380   -2.1971    0.0000 C   0  0  0  0  0  0  0  0  0  0  0  0
    0.4152   -7.8497    0.0000 C   0  0  0  0  0  0  0  0  0  0  0  0
    5.5270   -8.6234    0.0000 O   0  0  0  0  0  0  0  0  0  0  0  0
    5.6064   -9.1289    0.0000 C   0  0  0  0  0  0  0  0  0  0  0  0
  1  2  2  0
  1  6  1  0
  2  3  1  0
  3  4  1  0
  3  5  2  0
  6  7  1  0
  6  8  2  0
 30 40  2  0
 32 41  1  0
 32 42  1  1
 34 43  1  1
 35 44  1  0
 35 45  1  0
 35 46  1  6
 37 47  1  0
 38 48  1  0
 42 49  1  0
 42 50  1  0
 44 51  1  1
 45 52  1  0
 47 53  1  0
 47 54  1  0
 47 55  1  1
 48 56  1  1
 49 57  1  0
 49 58  1  0
 51 59  1  0
 53 60  1  6
 54 61  1  0
 16 17  2  0
 34 41  1  0
 39 44  1  0
 48 53  1  0
  9 10  1  0
  9 11  1  0
  9 12  1  0
  9 13  1  1
 10 14  1  0
 10 15  1  6
 11 16  1  0
 12 17  1  0
 14 18  1  0
 14 19  1  1
 20 15  1  1
 16 21  1  0
 17 22  1  0
 18 23  1  1
 18 24  1  0
 20 25  1  0
 20 26  1  0
 21 27  1  0
 21 28  1  6
 29 23  1  6
 24 30  1  0
 24 31  1  1
 25 32  1  0
 25 33  1  6
 26 34  1  0
 27 35  1  0
 27 36  2  0
 29 37  1  0
 29 38  1  0
 30 39  1  0
M  END

> <chembl_id>
CHEMBL2105890

> <chembl_pref_name>
MITEMCINAL FUMARATE


$$$$
 
     RDKit          2D

 64 68  0  0  0  0  0  0  0  0999 V2000
    4.0565  -10.4286    0.0000 F   0  0  0  0  0  0  0  0  0  0  0  0
    3.6512   -9.7215    0.0000 C   0  0  0  0  0  0  0  0  0  0  0  0
    3.2415  -10.4260    0.0000 C   0  0  0  0  0  0  0  0  0  0  0  0
    2.2123   -7.2322    0.0000 C   0  0  0  0  0  0  0  0  0  0  0  0
    2.9276   -6.8311    0.0000 C   0  0  0  0  0  0  0  0  0  0  0  0
    6.3267   -8.7746    0.0000 C   0  0  0  0  0  0  0  0  0  0  0  0
    2.9276   -9.3080    0.0000 C   0  0  0  0  0  0  0  0  0  0  0  0
    4.3666   -9.3080    0.0000 C   0  0  0  0  0  0  0  0  0  0  0  0
    7.1536   -8.7497    0.0000 C   0  0  0  0  0  0  0  0  0  0  0  0
    5.0820   -8.0592    0.0000 C   0  0  0  0  0  0  0  0  0  0  0  0
    1.5135   -6.2315    0.0000 C   0  0  0  0  0  0  0  0  0  0  0  0
    2.9276   -6.0040    0.0000 C   0  0  0  0  0  0  0  0  0  0  0  0
    2.3404   -6.2439    0.0000 O   0  0  0  0  0  0  0  0  0  0  0  0
    4.3583   -8.4809    0.0000 C   0  0  0  0  0  0  0  0  0  0  0  0
    1.5135   -6.9592    0.0000 O   0  0  0  0  0  0  0  0  0  0  0  0
    2.9276   -8.4809    0.0000 O   0  0  0  0  0  0  0  0  0  0  0  0
    3.6430   -5.5906    0.0000 C   0  0  0  0  0  0  0  0  0  0  0  0
    5.9007   -8.0592    0.0000 O   0  0  0  0  0  0  0  0  0  0  0  0
    7.5919   -9.4527    0.0000 C   0  0  0  0  0  0  0  0  0  0  0  0
    5.0820   -7.2446    0.0000 C   0  0  0  0  0  0  0  0  0  0  0  0
    2.2164   -8.0716    0.0000 C   0  0  0  0  0  0  0  0  0  0  0  0
    5.9338   -9.5148    0.0000 O   0  0  0  0  0  0  0  0  0  0  0  0
    4.3583   -6.0040    0.0000 C   0  0  0  0  0  0  0  0  0  0  0  0
    4.3583   -6.8311    0.0000 C   0  0  0  0  0  0  0  0  0  0  0  0
    7.2032  -10.1846    0.0000 C   0  0  0  0  0  0  0  0  0  0  0  0
    8.4189   -9.4279    0.0000 N   0  0  0  0  0  0  0  0  0  0  0  0
    2.2164   -9.7256    0.0000 O   0  0  0  0  0  0  0  0  0  0  0  0
    5.0861   -9.7133    0.0000 O   0  0  0  0  0  0  0  0  0  0  0  0
    6.3762  -10.2136    0.0000 C   0  0  0  0  0  0  0  0  0  0  0  0
    1.0131   -5.7311    0.0000 O   0  0  0  0  0  0  0  0  0  0  0  0
    3.6430   -4.7636    0.0000 N   0  0  0  0  0  0  0  0  0  0  0  0
    7.5423   -8.0178    0.0000 O   0  0  0  0  0  0  0  0  0  0  0  0
    5.4872   -6.5209    0.0000 O   0  0  0  0  0  0  0  0  0  0  0  0
    1.6126   -7.8235    0.0000 C   0  0  0  0  0  0  0  0  0  0  0  0
    2.5141   -5.2763    0.0000 C   0  0  0  0  0  0  0  0  0  0  0  0
    3.6430   -8.0592    0.0000 C   0  0  0  0  0  0  0  0  0  0  0  0
    5.9007   -7.2446    0.0000 C   0  0  0  0  0  0  0  0  0  0  0  0
    1.5010   -8.4851    0.0000 C   0  0  0  0  0  0  0  0  0  0  0  0
    4.7718   -5.2763    0.0000 C   0  0  0  0  0  0  0  0  0  0  0  0
    8.8076   -8.7001    0.0000 C   0  0  0  0  0  0  0  0  0  0  0  0
    8.8572  -10.1267    0.0000 C   0  0  0  0  0  0  0  0  0  0  0  0
    5.9875  -10.9413    0.0000 C   0  0  0  0  0  0  0  0  0  0  0  0
    4.8587   -8.8614    0.0000 H   0  0  0  0  0  0  0  0  0  0  0  0
    3.5065   -6.2439    0.0000 H   0  0  0  0  0  0  0  0  0  0  0  0
    1.5014   -9.3039    0.0000 C   0  0  0  0  0  0  0  0  0  0  0  0
    6.3059   -6.5102    0.0000 C   0  0  0  0  0  0  0  0  0  0  0  0
    6.7059   -5.7958    0.0000 C   0  0  0  0  0  0  0  0  0  0  0  0
    7.5246   -5.7851    0.0000 C   0  0  0  0  0  0  0  0  0  0  0  0
    7.9246   -5.0708    0.0000 C   0  0  0  0  0  0  0  0  0  0  0  0
    4.3520   -4.3542    0.0000 O   0  0  0  0  0  0  0  0  0  0  0  0
    4.3520   -3.5355    0.0000 C   0  0  0  0  0  0  0  0  0  0  0  0
    8.7432   -5.0647    0.0000 C   0  0  0  0  0  0  0  0  0  0  0  0
    7.9016   -3.6600    0.0000 C   0  0  0  0  0  0  0  0  0  0  0  0
    7.5054   -4.3741    0.0000 C   0  0  0  0  0  0  0  0  0  0  0  0
    8.7245   -3.6466    0.0000 C   0  0  0  0  0  0  0  0  0  0  0  0
    9.1420   -4.3504    0.0000 C   0  0  0  0  0  0  0  0  0  0  0  0
    9.9558   -4.3409    0.0000 C   0  0  0  0  0  0  0  0  0  0  0  0
   10.3584   -3.6290    0.0000 C   0  0  0  0  0  0  0  0  0  0  0  0
    9.9408   -2.9250    0.0000 C   0  0  0  0  0  0  0  0  0  0  0  0
    9.1207   -2.9330    0.0000 N   0  0  0  0  0  0  0  0  0  0  0  0
   10.3726   -5.0456    0.0000 O   0  0  0  0  0  0  0  0  0  0  0  0
   11.1833   -3.6204    0.0000 C   0  0  0  0  0  0  0  0  0  0  0  0
   11.5884   -2.9017    0.0000 O   0  0  0  0  0  0  0  0  0  0  0  0
   11.6032   -4.3305    0.0000 O   0  0  0  0  0  0  0  0  0  0  0  0
  2  1  1  0
  2  3  1  1
  5  4  1  0
  6 18  1  1
  7 16  1  0
  8  2  1  0
  2  7  1  0
  9  6  1  0
 10 14  1  0
 11 15  1  0
 12  5  1  0
 13  5  1  0
 14  8  1  0
 15  4  1  0
 16 21  1  0
 17 12  1  0
 18 10  1  0
 19  9  1  0
 20 24  1  0
 21  4  1  0
 22  6  1  0
 23 17  1  0
 24 23  1  0
 25 29  1  0
 19 26  1  1
 27  7  2  0
 28  8  2  0
 29 22  1  0
 30 11  2  0
 31 17  2  0
  9 32  1  6
 20 33  1  1
  4 34  1  6
 12 35  1  1
 14 36  1  6
 37 20  1  0
 21 38  1  6
 23 39  1  6
 40 26  1  0
 41 26  1  0
 29 42  1  1
 10 43  1  1
  5 44  1  1
 13 11  1  0
 20 10  1  0
 25 19  1  0
 38 45  1  0
 33 46  1  0
 46 47  1  0
 47 48  2  0
 48 49  1  0
 31 50  1  0
 50 51  1  0
 49 52  2  0
 52 56  1  0
 55 53  1  0
 53 54  2  0
 54 49  1  0
 55 56  2  0
 55 60  1  0
 56 57  1  0
 57 58  1  0
 58 59  2  0
 59 60  1  0
 57 61  2  0
 58 62  1  0
 62 63  1  0
 62 64  2  0
M  END

> <chembl_id>
CHEMBL4451718

> <chembl_pref_name>
None


$$$$
 
     RDKit          2D

 67 71  0  0  0  0  0  0  0  0999 V2000
   16.1339  -12.0229    0.0000 F   0  0  0  0  0  0  0  0  0  0  0  0
   15.7286  -11.3156    0.0000 C   0  0  0  0  0  0  0  0  0  0  0  0
   15.3188  -12.0203    0.0000 C   0  0  0  0  0  0  0  0  0  0  0  0
   14.2893   -8.8259    0.0000 C   0  0  0  0  0  0  0  0  0  0  0  0
   15.0048   -8.4247    0.0000 C   0  0  0  0  0  0  0  0  0  0  0  0
   18.4045  -10.3686    0.0000 C   0  0  0  0  0  0  0  0  0  0  0  0
   15.0048  -10.9021    0.0000 C   0  0  0  0  0  0  0  0  0  0  0  0
   16.4441  -10.9021    0.0000 C   0  0  0  0  0  0  0  0  0  0  0  0
   19.2316  -10.3437    0.0000 C   0  0  0  0  0  0  0  0  0  0  0  0
   17.1596   -9.6531    0.0000 C   0  0  0  0  0  0  0  0  0  0  0  0
   13.5904   -7.8250    0.0000 C   0  0  0  0  0  0  0  0  0  0  0  0
   15.0048   -7.5975    0.0000 C   0  0  0  0  0  0  0  0  0  0  0  0
   14.4175   -7.8374    0.0000 O   0  0  0  0  0  0  0  0  0  0  0  0
   16.4358  -10.0749    0.0000 C   0  0  0  0  0  0  0  0  0  0  0  0
   13.5904   -8.5529    0.0000 O   0  0  0  0  0  0  0  0  0  0  0  0
   15.0048  -10.0749    0.0000 O   0  0  0  0  0  0  0  0  0  0  0  0
   15.7203   -7.1839    0.0000 C   0  0  0  0  0  0  0  0  0  0  0  0
   17.9785   -9.6531    0.0000 O   0  0  0  0  0  0  0  0  0  0  0  0
   19.6700  -11.0468    0.0000 C   0  0  0  0  0  0  0  0  0  0  0  0
   17.1596   -8.8383    0.0000 C   0  0  0  0  0  0  0  0  0  0  0  0
   14.2934   -9.6654    0.0000 C   0  0  0  0  0  0  0  0  0  0  0  0
   18.0116  -11.1088    0.0000 O   0  0  0  0  0  0  0  0  0  0  0  0
   16.4358   -7.5975    0.0000 C   0  0  0  0  0  0  0  0  0  0  0  0
   16.4358   -8.4247    0.0000 C   0  0  0  0  0  0  0  0  0  0  0  0
   19.2812  -11.7788    0.0000 C   0  0  0  0  0  0  0  0  0  0  0  0
   20.4971  -11.0220    0.0000 N   0  0  0  0  0  0  0  0  0  0  0  0
   14.2934  -11.3197    0.0000 O   0  0  0  0  0  0  0  0  0  0  0  0
   17.1637  -11.3073    0.0000 O   0  0  0  0  0  0  0  0  0  0  0  0
   18.4541  -11.8078    0.0000 C   0  0  0  0  0  0  0  0  0  0  0  0
   13.0899   -7.3245    0.0000 O   0  0  0  0  0  0  0  0  0  0  0  0
   15.7203   -6.3568    0.0000 N   0  0  0  0  0  0  0  0  0  0  0  0
   19.6204   -9.6117    0.0000 O   0  0  0  0  0  0  0  0  0  0  0  0
   17.5648   -8.1145    0.0000 O   0  0  0  0  0  0  0  0  0  0  0  0
   13.6896   -9.4173    0.0000 C   0  0  0  0  0  0  0  0  0  0  0  0
   14.5913   -6.8696    0.0000 C   0  0  0  0  0  0  0  0  0  0  0  0
   15.7203   -9.6531    0.0000 C   0  0  0  0  0  0  0  0  0  0  0  0
   17.9785   -8.8383    0.0000 C   0  0  0  0  0  0  0  0  0  0  0  0
   13.5779  -10.0791    0.0000 C   0  0  0  0  0  0  0  0  0  0  0  0
   16.8493   -6.8696    0.0000 C   0  0  0  0  0  0  0  0  0  0  0  0
   20.8859  -10.2941    0.0000 C   0  0  0  0  0  0  0  0  0  0  0  0
   20.9355  -11.7210    0.0000 C   0  0  0  0  0  0  0  0  0  0  0  0
   18.0653  -12.5357    0.0000 C   0  0  0  0  0  0  0  0  0  0  0  0
   16.9362  -10.4553    0.0000 H   0  0  0  0  0  0  0  0  0  0  0  0
   15.5838   -7.8374    0.0000 H   0  0  0  0  0  0  0  0  0  0  0  0
   13.5783  -10.8979    0.0000 C   0  0  0  0  0  0  0  0  0  0  0  0
   18.3837   -8.1038    0.0000 C   0  0  0  0  0  0  0  0  0  0  0  0
   18.7838   -7.3893    0.0000 C   0  0  0  0  0  0  0  0  0  0  0  0
   19.6027   -7.3785    0.0000 C   0  0  0  0  0  0  0  0  0  0  0  0
   20.0027   -6.6641    0.0000 C   0  0  0  0  0  0  0  0  0  0  0  0
   16.4295   -5.9474    0.0000 O   0  0  0  0  0  0  0  0  0  0  0  0
   16.4295   -5.1285    0.0000 C   0  0  0  0  0  0  0  0  0  0  0  0
   20.8215   -6.6579    0.0000 C   0  0  0  0  0  0  0  0  0  0  0  0
   19.9798   -5.2530    0.0000 C   0  0  0  0  0  0  0  0  0  0  0  0
   19.5834   -5.9672    0.0000 C   0  0  0  0  0  0  0  0  0  0  0  0
   20.8028   -5.2396    0.0000 C   0  0  0  0  0  0  0  0  0  0  0  0
   21.2203   -5.9436    0.0000 C   0  0  0  0  0  0  0  0  0  0  0  0
   22.0343   -5.9339    0.0000 C   0  0  0  0  0  0  0  0  0  0  0  0
   22.4370   -5.2220    0.0000 C   0  0  0  0  0  0  0  0  0  0  0  0
   22.0193   -4.5179    0.0000 C   0  0  0  0  0  0  0  0  0  0  0  0
   21.1991   -4.5259    0.0000 N   0  0  0  0  0  0  0  0  0  0  0  0
   22.4512   -6.6388    0.0000 O   0  0  0  0  0  0  0  0  0  0  0  0
   20.7803   -3.8223    0.0000 C   0  0  0  0  0  0  0  0  0  0  0  0
   19.9615   -3.8330    0.0000 C   0  0  0  0  0  0  0  0  0  0  0  0
   23.2619   -5.2134    0.0000 C   0  0  0  0  0  0  0  0  0  0  0  0
   23.6670   -4.4947    0.0000 N   0  0  0  0  0  0  0  0  0  0  0  0
   23.6818   -5.9236    0.0000 O   0  0  0  0  0  0  0  0  0  0  0  0
   24.4920   -4.4861    0.0000 C   0  0  0  0  0  0  0  0  0  0  0  0
  2  1  1  0
  2  3  1  1
  5  4  1  0
  6 18  1  1
  7 16  1  0
  8  2  1  0
  2  7  1  0
  9  6  1  0
 10 14  1  0
 11 15  1  0
 12  5  1  0
 13  5  1  0
 14  8  1  0
 15  4  1  0
 16 21  1  0
 17 12  1  0
 18 10  1  0
 19  9  1  0
 20 24  1  0
 21  4  1  0
 22  6  1  0
 23 17  1  0
 24 23  1  0
 25 29  1  0
 19 26  1  1
 27  7  2  0
 28  8  2  0
 29 22  1  0
 30 11  2  0
 31 17  2  0
  9 32  1  6
 20 33  1  1
  4 34  1  6
 12 35  1  1
 14 36  1  6
 37 20  1  0
 21 38  1  6
 23 39  1  6
 40 26  1  0
 41 26  1  0
 29 42  1  1
 10 43  1  1
  5 44  1  1
 13 11  1  0
 20 10  1  0
 25 19  1  0
 38 45  1  0
 33 46  1  0
 46 47  1  0
 47 48  2  0
 48 49  1  0
 31 50  1  0
 50 51  1  0
 49 52  2  0
 52 56  1  0
 55 53  1  0
 53 54  2  0
 54 49  1  0
 55 56  2  0
 55 60  1  0
 56 57  1  0
 57 58  1  0
 58 59  2  0
 59 60  1  0
 57 61  2  0
 60 62  1  0
 62 63  1  0
 58 64  1  0
 64 65  1  0
 64 66  2  0
 65 67  1  0
M  END

> <chembl_id>
CHEMBL4461768

> <chembl_pref_name>
None


$$$$
 
     RDKit          2D

 67 72  0  0  0  0  0  0  0  0999 V2000
   22.1621  -28.1015    0.0000 F   0  0  0  0  0  0  0  0  0  0  0  0
   21.7559  -27.3928    0.0000 C   0  0  0  0  0  0  0  0  0  0  0  0
   21.3452  -28.0989    0.0000 C   0  0  0  0  0  0  0  0  0  0  0  0
   20.3134  -24.8976    0.0000 C   0  0  0  0  0  0  0  0  0  0  0  0
   21.0306  -24.4955    0.0000 C   0  0  0  0  0  0  0  0  0  0  0  0
   24.4375  -26.4436    0.0000 C   0  0  0  0  0  0  0  0  0  0  0  0
   21.0306  -26.9782    0.0000 C   0  0  0  0  0  0  0  0  0  0  0  0
   22.4729  -26.9782    0.0000 C   0  0  0  0  0  0  0  0  0  0  0  0
   25.2665  -26.4188    0.0000 C   0  0  0  0  0  0  0  0  0  0  0  0
   23.1899  -25.7266    0.0000 C   0  0  0  0  0  0  0  0  0  0  0  0
   19.6130  -23.8946    0.0000 C   0  0  0  0  0  0  0  0  0  0  0  0
   21.0306  -23.6666    0.0000 C   0  0  0  0  0  0  0  0  0  0  0  0
   20.4420  -23.9071    0.0000 O   0  0  0  0  0  0  0  0  0  0  0  0
   22.4647  -26.1493    0.0000 C   0  0  0  0  0  0  0  0  0  0  0  0
   19.6130  -24.6241    0.0000 O   0  0  0  0  0  0  0  0  0  0  0  0
   21.0306  -26.1493    0.0000 O   0  0  0  0  0  0  0  0  0  0  0  0
   21.7476  -23.2522    0.0000 C   0  0  0  0  0  0  0  0  0  0  0  0
   24.0106  -25.7266    0.0000 O   0  0  0  0  0  0  0  0  0  0  0  0
   25.7059  -27.1234    0.0000 C   0  0  0  0  0  0  0  0  0  0  0  0
   23.1899  -24.9100    0.0000 C   0  0  0  0  0  0  0  0  0  0  0  0
   20.3177  -25.7390    0.0000 C   0  0  0  0  0  0  0  0  0  0  0  0
   24.0438  -27.1855    0.0000 O   0  0  0  0  0  0  0  0  0  0  0  0
   22.4647  -23.6666    0.0000 C   0  0  0  0  0  0  0  0  0  0  0  0
   22.4647  -24.4955    0.0000 C   0  0  0  0  0  0  0  0  0  0  0  0
   25.3162  -27.8570    0.0000 C   0  0  0  0  0  0  0  0  0  0  0  0
   26.5348  -27.0985    0.0000 N   0  0  0  0  0  0  0  0  0  0  0  0
   20.3177  -27.3969    0.0000 O   0  0  0  0  0  0  0  0  0  0  0  0
   23.1941  -27.3845    0.0000 O   0  0  0  0  0  0  0  0  0  0  0  0
   24.4873  -27.8860    0.0000 C   0  0  0  0  0  0  0  0  0  0  0  0
   19.1116  -23.3931    0.0000 O   0  0  0  0  0  0  0  0  0  0  0  0
   21.7476  -22.4232    0.0000 N   0  0  0  0  0  0  0  0  0  0  0  0
   25.6561  -25.6851    0.0000 O   0  0  0  0  0  0  0  0  0  0  0  0
   23.5961  -24.1847    0.0000 O   0  0  0  0  0  0  0  0  0  0  0  0
   19.7125  -25.4904    0.0000 C   0  0  0  0  0  0  0  0  0  0  0  0
   20.6160  -22.9372    0.0000 C   0  0  0  0  0  0  0  0  0  0  0  0
   21.7476  -25.7266    0.0000 C   0  0  0  0  0  0  0  0  0  0  0  0
   24.0106  -24.9100    0.0000 C   0  0  0  0  0  0  0  0  0  0  0  0
   19.6006  -26.1535    0.0000 C   0  0  0  0  0  0  0  0  0  0  0  0
   22.8791  -22.9372    0.0000 C   0  0  0  0  0  0  0  0  0  0  0  0
   26.9244  -26.3690    0.0000 C   0  0  0  0  0  0  0  0  0  0  0  0
   26.9741  -27.7989    0.0000 C   0  0  0  0  0  0  0  0  0  0  0  0
   24.0977  -28.6155    0.0000 C   0  0  0  0  0  0  0  0  0  0  0  0
   22.9662  -26.5307    0.0000 H   0  0  0  0  0  0  0  0  0  0  0  0
   21.6108  -23.9071    0.0000 H   0  0  0  0  0  0  0  0  0  0  0  0
   19.6010  -26.9741    0.0000 C   0  0  0  0  0  0  0  0  0  0  0  0
   24.4167  -24.1740    0.0000 C   0  0  0  0  0  0  0  0  0  0  0  0
   24.8177  -23.4580    0.0000 C   0  0  0  0  0  0  0  0  0  0  0  0
   25.6383  -23.4471    0.0000 C   0  0  0  0  0  0  0  0  0  0  0  0
   26.0393  -22.7311    0.0000 C   0  0  0  0  0  0  0  0  0  0  0  0
   22.4583  -22.0128    0.0000 O   0  0  0  0  0  0  0  0  0  0  0  0
   22.4583  -21.1922    0.0000 C   0  0  0  0  0  0  0  0  0  0  0  0
   26.8597  -22.7251    0.0000 C   0  0  0  0  0  0  0  0  0  0  0  0
   26.0162  -21.3170    0.0000 C   0  0  0  0  0  0  0  0  0  0  0  0
   25.6190  -22.0327    0.0000 C   0  0  0  0  0  0  0  0  0  0  0  0
   26.8411  -21.3035    0.0000 C   0  0  0  0  0  0  0  0  0  0  0  0
   27.2595  -22.0091    0.0000 C   0  0  0  0  0  0  0  0  0  0  0  0
   28.0753  -21.9995    0.0000 C   0  0  0  0  0  0  0  0  0  0  0  0
   28.4787  -21.2859    0.0000 C   0  0  0  0  0  0  0  0  0  0  0  0
   28.0602  -20.5804    0.0000 C   0  0  0  0  0  0  0  0  0  0  0  0
   27.2382  -20.5884    0.0000 N   0  0  0  0  0  0  0  0  0  0  0  0
   28.4930  -22.7059    0.0000 O   0  0  0  0  0  0  0  0  0  0  0  0
   26.8224  -19.8852    0.0000 C   0  0  0  0  0  0  0  0  0  0  0  0
   26.8115  -19.0647    0.0000 C   0  0  0  0  0  0  0  0  0  0  0  0
   26.1064  -19.4843    0.0000 C   0  0  0  0  0  0  0  0  0  0  0  0
   29.3037  -21.2773    0.0000 C   0  0  0  0  0  0  0  0  0  0  0  0
   29.7087  -20.5585    0.0000 N   0  0  0  0  0  0  0  0  0  0  0  0
   29.7236  -21.9874    0.0000 O   0  0  0  0  0  0  0  0  0  0  0  0
  2  1  1  0
  2  3  1  1
  5  4  1  0
  6 18  1  1
  7 16  1  0
  8  2  1  0
  2  7  1  0
  9  6  1  0
 10 14  1  0
 11 15  1  0
 12  5  1  0
 13  5  1  0
 14  8  1  0
 15  4  1  0
 16 21  1  0
 17 12  1  0
 18 10  1  0
 19  9  1  0
 20 24  1  0
 21  4  1  0
 22  6  1  0
 23 17  1  0
 24 23  1  0
 25 29  1  0
 19 26  1  1
 27  7  2  0
 28  8  2  0
 29 22  1  0
 30 11  2  0
 31 17  2  0
  9 32  1  6
 20 33  1  1
  4 34  1  6
 12 35  1  1
 14 36  1  6
 37 20  1  0
 21 38  1  6
 23 39  1  6
 40 26  1  0
 41 26  1  0
 29 42  1  1
 10 43  1  1
  5 44  1  1
 13 11  1  0
 20 10  1  0
 25 19  1  0
 38 45  1  0
 33 46  1  0
 46 47  1  0
 47 48  2  0
 48 49  1  0
 31 50  1  0
 50 51  1  0
 49 52  2  0
 52 56  1  0
 55 53  1  0
 53 54  2  0
 54 49  1  0
 55 56  2  0
 55 60  1  0
 56 57  1  0
 57 58  1  0
 58 59  2  0
 59 60  1  0
 57 61  2  0
 63 62  1  0
 64 63  1  0
 62 64  1  0
 60 62  1  0
 58 65  1  0
 65 66  1  0
 65 67  2  0
M  END

> <chembl_id>
CHEMBL4466824

> <chembl_pref_name>
None


$$$$
 
     RDKit          2D

 67 72  0  0  0  0  0  0  0  0999 V2000
   16.7552  -10.9270    0.0000 F   0  0  0  0  0  0  0  0  0  0  0  0
   16.3490  -10.2181    0.0000 C   0  0  0  0  0  0  0  0  0  0  0  0
   15.9382  -10.9243    0.0000 C   0  0  0  0  0  0  0  0  0  0  0  0
   14.9064   -7.7226    0.0000 C   0  0  0  0  0  0  0  0  0  0  0  0
   15.6235   -7.3206    0.0000 C   0  0  0  0  0  0  0  0  0  0  0  0
   19.0309   -9.2688    0.0000 C   0  0  0  0  0  0  0  0  0  0  0  0
   15.6235   -9.8036    0.0000 C   0  0  0  0  0  0  0  0  0  0  0  0
   17.0661   -9.8036    0.0000 C   0  0  0  0  0  0  0  0  0  0  0  0
   19.8600   -9.2439    0.0000 C   0  0  0  0  0  0  0  0  0  0  0  0
   17.7832   -8.5517    0.0000 C   0  0  0  0  0  0  0  0  0  0  0  0
   14.2058   -6.7194    0.0000 C   0  0  0  0  0  0  0  0  0  0  0  0
   15.6235   -6.4915    0.0000 C   0  0  0  0  0  0  0  0  0  0  0  0
   15.0349   -6.7319    0.0000 O   0  0  0  0  0  0  0  0  0  0  0  0
   17.0577   -8.9745    0.0000 C   0  0  0  0  0  0  0  0  0  0  0  0
   14.2058   -7.4490    0.0000 O   0  0  0  0  0  0  0  0  0  0  0  0
   15.6235   -8.9745    0.0000 O   0  0  0  0  0  0  0  0  0  0  0  0
   16.3406   -6.0769    0.0000 C   0  0  0  0  0  0  0  0  0  0  0  0
   18.6040   -8.5517    0.0000 O   0  0  0  0  0  0  0  0  0  0  0  0
   20.2993   -9.9486    0.0000 C   0  0  0  0  0  0  0  0  0  0  0  0
   17.7832   -7.7351    0.0000 C   0  0  0  0  0  0  0  0  0  0  0  0
   14.9105   -8.5642    0.0000 C   0  0  0  0  0  0  0  0  0  0  0  0
   18.6371  -10.0109    0.0000 O   0  0  0  0  0  0  0  0  0  0  0  0
   17.0577   -6.4915    0.0000 C   0  0  0  0  0  0  0  0  0  0  0  0
   17.0577   -7.3206    0.0000 C   0  0  0  0  0  0  0  0  0  0  0  0
   19.9098  -10.6824    0.0000 C   0  0  0  0  0  0  0  0  0  0  0  0
   21.1285   -9.9238    0.0000 N   0  0  0  0  0  0  0  0  0  0  0  0
   14.9105  -10.2222    0.0000 O   0  0  0  0  0  0  0  0  0  0  0  0
   17.7873  -10.2098    0.0000 O   0  0  0  0  0  0  0  0  0  0  0  0
   19.0806  -10.7114    0.0000 C   0  0  0  0  0  0  0  0  0  0  0  0
   13.7042   -6.2179    0.0000 O   0  0  0  0  0  0  0  0  0  0  0  0
   16.3406   -5.2479    0.0000 N   0  0  0  0  0  0  0  0  0  0  0  0
   20.2496   -8.5102    0.0000 O   0  0  0  0  0  0  0  0  0  0  0  0
   18.1895   -7.0096    0.0000 O   0  0  0  0  0  0  0  0  0  0  0  0
   14.3054   -8.3154    0.0000 C   0  0  0  0  0  0  0  0  0  0  0  0
   15.2090   -5.7619    0.0000 C   0  0  0  0  0  0  0  0  0  0  0  0
   16.3406   -8.5517    0.0000 C   0  0  0  0  0  0  0  0  0  0  0  0
   18.6040   -7.7351    0.0000 C   0  0  0  0  0  0  0  0  0  0  0  0
   14.1934   -8.9787    0.0000 C   0  0  0  0  0  0  0  0  0  0  0  0
   17.4723   -5.7619    0.0000 C   0  0  0  0  0  0  0  0  0  0  0  0
   21.5181   -9.1942    0.0000 C   0  0  0  0  0  0  0  0  0  0  0  0
   21.5679  -10.6243    0.0000 C   0  0  0  0  0  0  0  0  0  0  0  0
   18.6911  -11.4410    0.0000 C   0  0  0  0  0  0  0  0  0  0  0  0
   17.5593   -9.3559    0.0000 H   0  0  0  0  0  0  0  0  0  0  0  0
   16.2038   -6.7319    0.0000 H   0  0  0  0  0  0  0  0  0  0  0  0
   14.1938   -9.7995    0.0000 C   0  0  0  0  0  0  0  0  0  0  0  0
   19.0101   -6.9989    0.0000 C   0  0  0  0  0  0  0  0  0  0  0  0
   19.4112   -6.2827    0.0000 C   0  0  0  0  0  0  0  0  0  0  0  0
   20.2319   -6.2720    0.0000 C   0  0  0  0  0  0  0  0  0  0  0  0
   20.6329   -5.5559    0.0000 C   0  0  0  0  0  0  0  0  0  0  0  0
   17.0514   -4.8376    0.0000 O   0  0  0  0  0  0  0  0  0  0  0  0
   17.0514   -4.0168    0.0000 C   0  0  0  0  0  0  0  0  0  0  0  0
   21.4535   -5.5498    0.0000 C   0  0  0  0  0  0  0  0  0  0  0  0
   20.6098   -4.1416    0.0000 C   0  0  0  0  0  0  0  0  0  0  0  0
   20.2126   -4.8574    0.0000 C   0  0  0  0  0  0  0  0  0  0  0  0
   21.4347   -4.1282    0.0000 C   0  0  0  0  0  0  0  0  0  0  0  0
   21.8533   -4.8337    0.0000 C   0  0  0  0  0  0  0  0  0  0  0  0
   22.6692   -4.8242    0.0000 C   0  0  0  0  0  0  0  0  0  0  0  0
   23.0726   -4.1105    0.0000 C   0  0  0  0  0  0  0  0  0  0  0  0
   22.6540   -3.4048    0.0000 C   0  0  0  0  0  0  0  0  0  0  0  0
   21.8320   -3.4129    0.0000 N   0  0  0  0  0  0  0  0  0  0  0  0
   23.0869   -5.5307    0.0000 O   0  0  0  0  0  0  0  0  0  0  0  0
   21.4161   -2.7097    0.0000 C   0  0  0  0  0  0  0  0  0  0  0  0
   21.4053   -1.8889    0.0000 C   0  0  0  0  0  0  0  0  0  0  0  0
   20.6999   -2.3086    0.0000 C   0  0  0  0  0  0  0  0  0  0  0  0
   23.8976   -4.1105    0.0000 C   0  0  0  0  0  0  0  0  0  0  0  0
   24.3101   -3.3960    0.0000 O   0  0  0  0  0  0  0  0  0  0  0  0
   24.3101   -4.8250    0.0000 O   0  0  0  0  0  0  0  0  0  0  0  0
  2  1  1  0
  2  3  1  1
  5  4  1  0
  6 18  1  1
  7 16  1  0
  8  2  1  0
  2  7  1  0
  9  6  1  0
 10 14  1  0
 11 15  1  0
 12  5  1  0
 13  5  1  0
 14  8  1  0
 15  4  1  0
 16 21  1  0
 17 12  1  0
 18 10  1  0
 19  9  1  0
 20 24  1  0
 21  4  1  0
 22  6  1  0
 23 17  1  0
 24 23  1  0
 25 29  1  0
 19 26  1  1
 27  7  2  0
 28  8  2  0
 29 22  1  0
 30 11  2  0
 31 17  2  0
  9 32  1  6
 20 33  1  1
  4 34  1  6
 12 35  1  1
 14 36  1  6
 37 20  1  0
 21 38  1  6
 23 39  1  6
 40 26  1  0
 41 26  1  0
 29 42  1  1
 10 43  1  1
  5 44  1  1
 13 11  1  0
 20 10  1  0
 25 19  1  0
 38 45  1  0
 33 46  1  0
 46 47  1  0
 47 48  2  0
 48 49  1  0
 31 50  1  0
 50 51  1  0
 49 52  2  0
 52 56  1  0
 55 53  1  0
 53 54  2  0
 54 49  1  0
 55 56  2  0
 55 60  1  0
 56 57  1  0
 57 58  1  0
 58 59  2  0
 59 60  1  0
 57 61  2  0
 63 62  1  0
 64 63  1  0
 62 64  1  0
 60 62  1  0
 58 65  1  0
 65 66  1  0
 65 67  2  0
M  END

> <chembl_id>
CHEMBL4468094

> <chembl_pref_name>
None


$$$$
 
     RDKit          2D

 66 70  0  0  0  0  0  0  0  0999 V2000
   36.0324  -27.5919    0.0000 F   0  0  0  0  0  0  0  0  0  0  0  0
   35.6272  -26.8847    0.0000 C   0  0  0  0  0  0  0  0  0  0  0  0
   35.2173  -27.5893    0.0000 C   0  0  0  0  0  0  0  0  0  0  0  0
   34.1880  -24.3952    0.0000 C   0  0  0  0  0  0  0  0  0  0  0  0
   34.9034  -23.9941    0.0000 C   0  0  0  0  0  0  0  0  0  0  0  0
   38.3028  -25.9377    0.0000 C   0  0  0  0  0  0  0  0  0  0  0  0
   34.9034  -26.4712    0.0000 C   0  0  0  0  0  0  0  0  0  0  0  0
   36.3426  -26.4712    0.0000 C   0  0  0  0  0  0  0  0  0  0  0  0
   39.1299  -25.9129    0.0000 C   0  0  0  0  0  0  0  0  0  0  0  0
   37.0580  -25.2223    0.0000 C   0  0  0  0  0  0  0  0  0  0  0  0
   33.4891  -23.3944    0.0000 C   0  0  0  0  0  0  0  0  0  0  0  0
   34.9034  -23.1669    0.0000 C   0  0  0  0  0  0  0  0  0  0  0  0
   34.3161  -23.4068    0.0000 O   0  0  0  0  0  0  0  0  0  0  0  0
   36.3343  -25.6441    0.0000 C   0  0  0  0  0  0  0  0  0  0  0  0
   33.4891  -24.1222    0.0000 O   0  0  0  0  0  0  0  0  0  0  0  0
   34.9034  -25.6441    0.0000 O   0  0  0  0  0  0  0  0  0  0  0  0
   35.6188  -22.7534    0.0000 C   0  0  0  0  0  0  0  0  0  0  0  0
   37.8769  -25.2223    0.0000 O   0  0  0  0  0  0  0  0  0  0  0  0
   39.5682  -26.6159    0.0000 C   0  0  0  0  0  0  0  0  0  0  0  0
   37.0580  -24.4076    0.0000 C   0  0  0  0  0  0  0  0  0  0  0  0
   34.1921  -25.2346    0.0000 C   0  0  0  0  0  0  0  0  0  0  0  0
   37.9099  -26.6780    0.0000 O   0  0  0  0  0  0  0  0  0  0  0  0
   36.3343  -23.1669    0.0000 C   0  0  0  0  0  0  0  0  0  0  0  0
   36.3343  -23.9941    0.0000 C   0  0  0  0  0  0  0  0  0  0  0  0
   39.1795  -27.3479    0.0000 C   0  0  0  0  0  0  0  0  0  0  0  0
   40.3954  -26.5911    0.0000 N   0  0  0  0  0  0  0  0  0  0  0  0
   34.1921  -26.8888    0.0000 O   0  0  0  0  0  0  0  0  0  0  0  0
   37.0621  -26.8765    0.0000 O   0  0  0  0  0  0  0  0  0  0  0  0
   38.3524  -27.3769    0.0000 C   0  0  0  0  0  0  0  0  0  0  0  0
   32.9887  -22.8940    0.0000 O   0  0  0  0  0  0  0  0  0  0  0  0
   35.6188  -21.9263    0.0000 N   0  0  0  0  0  0  0  0  0  0  0  0
   39.5186  -25.1809    0.0000 O   0  0  0  0  0  0  0  0  0  0  0  0
   37.4633  -23.6838    0.0000 O   0  0  0  0  0  0  0  0  0  0  0  0
   33.5884  -24.9865    0.0000 C   0  0  0  0  0  0  0  0  0  0  0  0
   34.4899  -22.4391    0.0000 C   0  0  0  0  0  0  0  0  0  0  0  0
   35.6188  -25.2223    0.0000 C   0  0  0  0  0  0  0  0  0  0  0  0
   37.8769  -24.4076    0.0000 C   0  0  0  0  0  0  0  0  0  0  0  0
   33.4767  -25.6483    0.0000 C   0  0  0  0  0  0  0  0  0  0  0  0
   36.7479  -22.4391    0.0000 C   0  0  0  0  0  0  0  0  0  0  0  0
   40.7840  -25.8633    0.0000 C   0  0  0  0  0  0  0  0  0  0  0  0
   40.8337  -27.2900    0.0000 C   0  0  0  0  0  0  0  0  0  0  0  0
   37.9637  -28.1047    0.0000 C   0  0  0  0  0  0  0  0  0  0  0  0
   36.8347  -26.0245    0.0000 H   0  0  0  0  0  0  0  0  0  0  0  0
   35.4824  -23.4068    0.0000 H   0  0  0  0  0  0  0  0  0  0  0  0
   33.4771  -26.4671    0.0000 C   0  0  0  0  0  0  0  0  0  0  0  0
   38.2821  -23.6731    0.0000 C   0  0  0  0  0  0  0  0  0  0  0  0
   38.6822  -22.9587    0.0000 C   0  0  0  0  0  0  0  0  0  0  0  0
   39.5009  -22.9480    0.0000 C   0  0  0  0  0  0  0  0  0  0  0  0
   39.9010  -22.2335    0.0000 C   0  0  0  0  0  0  0  0  0  0  0  0
   36.3280  -21.5169    0.0000 O   0  0  0  0  0  0  0  0  0  0  0  0
   36.3280  -20.6981    0.0000 C   0  0  0  0  0  0  0  0  0  0  0  0
   40.7196  -22.2274    0.0000 C   0  0  0  0  0  0  0  0  0  0  0  0
   39.8779  -20.8226    0.0000 C   0  0  0  0  0  0  0  0  0  0  0  0
   39.4817  -21.5368    0.0000 C   0  0  0  0  0  0  0  0  0  0  0  0
   40.7009  -20.8092    0.0000 C   0  0  0  0  0  0  0  0  0  0  0  0
   41.1185  -21.5131    0.0000 C   0  0  0  0  0  0  0  0  0  0  0  0
   41.9324  -21.5035    0.0000 C   0  0  0  0  0  0  0  0  0  0  0  0
   42.3349  -20.7916    0.0000 C   0  0  0  0  0  0  0  0  0  0  0  0
   41.9173  -20.0876    0.0000 C   0  0  0  0  0  0  0  0  0  0  0  0
   41.0973  -20.0956    0.0000 N   0  0  0  0  0  0  0  0  0  0  0  0
   42.3492  -22.2084    0.0000 O   0  0  0  0  0  0  0  0  0  0  0  0
   40.6785  -19.3920    0.0000 C   0  0  0  0  0  0  0  0  0  0  0  0
   39.8597  -19.4027    0.0000 C   0  0  0  0  0  0  0  0  0  0  0  0
   43.1599  -20.7830    0.0000 C   0  0  0  0  0  0  0  0  0  0  0  0
   43.5649  -20.0642    0.0000 N   0  0  0  0  0  0  0  0  0  0  0  0
   43.5798  -21.4931    0.0000 O   0  0  0  0  0  0  0  0  0  0  0  0
  2  1  1  0
  2  3  1  1
  5  4  1  0
  6 18  1  1
  7 16  1  0
  8  2  1  0
  2  7  1  0
  9  6  1  0
 10 14  1  0
 11 15  1  0
 12  5  1  0
 13  5  1  0
 14  8  1  0
 15  4  1  0
 16 21  1  0
 17 12  1  0
 18 10  1  0
 19  9  1  0
 20 24  1  0
 21  4  1  0
 22  6  1  0
 23 17  1  0
 24 23  1  0
 25 29  1  0
 19 26  1  1
 27  7  2  0
 28  8  2  0
 29 22  1  0
 30 11  2  0
 31 17  2  0
  9 32  1  6
 20 33  1  1
  4 34  1  6
 12 35  1  1
 14 36  1  6
 37 20  1  0
 21 38  1  6
 23 39  1  6
 40 26  1  0
 41 26  1  0
 29 42  1  1
 10 43  1  1
  5 44  1  1
 13 11  1  0
 20 10  1  0
 25 19  1  0
 38 45  1  0
 33 46  1  0
 46 47  1  0
 47 48  2  0
 48 49  1  0
 31 50  1  0
 50 51  1  0
 49 52  2  0
 52 56  1  0
 55 53  1  0
 53 54  2  0
 54 49  1  0
 55 56  2  0
 55 60  1  0
 56 57  1  0
 57 58  1  0
 58 59  2  0
 59 60  1  0
 57 61  2  0
 60 62  1  0
 62 63  1  0
 58 64  1  0
 64 65  1  0
 64 66  2  0
M  END

> <chembl_id>
CHEMBL4475769

> <chembl_pref_name>
None


$$$$
 
     RDKit          2D

 68 73  0  0  0  0  0  0  0  0999 V2000
    3.6644  -11.2752    0.0000 F   0  0  0  0  0  0  0  0  0  0  0  0
    3.2582  -10.5663    0.0000 C   0  0  0  0  0  0  0  0  0  0  0  0
    2.8474  -11.2726    0.0000 C   0  0  0  0  0  0  0  0  0  0  0  0
    1.8156   -8.0708    0.0000 C   0  0  0  0  0  0  0  0  0  0  0  0
    2.5327   -7.6688    0.0000 C   0  0  0  0  0  0  0  0  0  0  0  0
    5.9402   -9.6171    0.0000 C   0  0  0  0  0  0  0  0  0  0  0  0
    2.5327  -10.1518    0.0000 C   0  0  0  0  0  0  0  0  0  0  0  0
    3.9753  -10.1518    0.0000 C   0  0  0  0  0  0  0  0  0  0  0  0
    6.7693   -9.5921    0.0000 C   0  0  0  0  0  0  0  0  0  0  0  0
    4.6924   -8.8999    0.0000 C   0  0  0  0  0  0  0  0  0  0  0  0
    1.1151   -7.0677    0.0000 C   0  0  0  0  0  0  0  0  0  0  0  0
    2.5327   -6.8397    0.0000 C   0  0  0  0  0  0  0  0  0  0  0  0
    1.9442   -7.0801    0.0000 O   0  0  0  0  0  0  0  0  0  0  0  0
    3.9671   -9.3227    0.0000 C   0  0  0  0  0  0  0  0  0  0  0  0
    1.1151   -7.7972    0.0000 O   0  0  0  0  0  0  0  0  0  0  0  0
    2.5327   -9.3227    0.0000 O   0  0  0  0  0  0  0  0  0  0  0  0
    3.2498   -6.4252    0.0000 C   0  0  0  0  0  0  0  0  0  0  0  0
    5.5132   -8.8999    0.0000 O   0  0  0  0  0  0  0  0  0  0  0  0
    7.2087  -10.2968    0.0000 C   0  0  0  0  0  0  0  0  0  0  0  0
    4.6924   -8.0833    0.0000 C   0  0  0  0  0  0  0  0  0  0  0  0
    1.8198   -8.9123    0.0000 C   0  0  0  0  0  0  0  0  0  0  0  0
    5.5463  -10.3590    0.0000 O   0  0  0  0  0  0  0  0  0  0  0  0
    3.9671   -6.8397    0.0000 C   0  0  0  0  0  0  0  0  0  0  0  0
    3.9671   -7.6688    0.0000 C   0  0  0  0  0  0  0  0  0  0  0  0
    6.8190  -11.0306    0.0000 C   0  0  0  0  0  0  0  0  0  0  0  0
    8.0377  -10.2720    0.0000 N   0  0  0  0  0  0  0  0  0  0  0  0
    1.8198  -10.5704    0.0000 O   0  0  0  0  0  0  0  0  0  0  0  0
    4.6966  -10.5581    0.0000 O   0  0  0  0  0  0  0  0  0  0  0  0
    5.9899  -11.0595    0.0000 C   0  0  0  0  0  0  0  0  0  0  0  0
    0.6135   -6.5661    0.0000 O   0  0  0  0  0  0  0  0  0  0  0  0
    3.2498   -5.5962    0.0000 N   0  0  0  0  0  0  0  0  0  0  0  0
    7.1589   -8.8585    0.0000 O   0  0  0  0  0  0  0  0  0  0  0  0
    5.0987   -7.3578    0.0000 O   0  0  0  0  0  0  0  0  0  0  0  0
    1.2146   -8.6636    0.0000 C   0  0  0  0  0  0  0  0  0  0  0  0
    2.1182   -6.1101    0.0000 C   0  0  0  0  0  0  0  0  0  0  0  0
    3.2498   -8.8999    0.0000 C   0  0  0  0  0  0  0  0  0  0  0  0
    5.5132   -8.0833    0.0000 C   0  0  0  0  0  0  0  0  0  0  0  0
    1.1026   -9.3269    0.0000 C   0  0  0  0  0  0  0  0  0  0  0  0
    4.3816   -6.1101    0.0000 C   0  0  0  0  0  0  0  0  0  0  0  0
    8.4274   -9.5424    0.0000 C   0  0  0  0  0  0  0  0  0  0  0  0
    8.4771  -10.9726    0.0000 C   0  0  0  0  0  0  0  0  0  0  0  0
    5.6003  -11.7891    0.0000 C   0  0  0  0  0  0  0  0  0  0  0  0
    4.4686   -9.7040    0.0000 H   0  0  0  0  0  0  0  0  0  0  0  0
    3.1130   -7.0801    0.0000 H   0  0  0  0  0  0  0  0  0  0  0  0
    1.1031  -10.1477    0.0000 C   0  0  0  0  0  0  0  0  0  0  0  0
    5.9194   -7.3471    0.0000 C   0  0  0  0  0  0  0  0  0  0  0  0
    6.3204   -6.6310    0.0000 C   0  0  0  0  0  0  0  0  0  0  0  0
    7.1411   -6.6202    0.0000 C   0  0  0  0  0  0  0  0  0  0  0  0
    7.5421   -5.9041    0.0000 C   0  0  0  0  0  0  0  0  0  0  0  0
    3.9607   -5.1858    0.0000 O   0  0  0  0  0  0  0  0  0  0  0  0
    3.9607   -4.3650    0.0000 C   0  0  0  0  0  0  0  0  0  0  0  0
    8.3627   -5.8980    0.0000 C   0  0  0  0  0  0  0  0  0  0  0  0
    7.5190   -4.4898    0.0000 C   0  0  0  0  0  0  0  0  0  0  0  0
    7.1218   -5.2057    0.0000 C   0  0  0  0  0  0  0  0  0  0  0  0
    8.3439   -4.4764    0.0000 C   0  0  0  0  0  0  0  0  0  0  0  0
    8.7625   -5.1820    0.0000 C   0  0  0  0  0  0  0  0  0  0  0  0
    9.5784   -5.1723    0.0000 C   0  0  0  0  0  0  0  0  0  0  0  0
    9.9818   -4.4587    0.0000 C   0  0  0  0  0  0  0  0  0  0  0  0
    9.5633   -3.7530    0.0000 C   0  0  0  0  0  0  0  0  0  0  0  0
    8.7412   -3.7611    0.0000 N   0  0  0  0  0  0  0  0  0  0  0  0
    9.9961   -5.8789    0.0000 O   0  0  0  0  0  0  0  0  0  0  0  0
    8.3253   -3.0578    0.0000 C   0  0  0  0  0  0  0  0  0  0  0  0
    8.3145   -2.2371    0.0000 C   0  0  0  0  0  0  0  0  0  0  0  0
    7.6092   -2.6569    0.0000 C   0  0  0  0  0  0  0  0  0  0  0  0
   10.8068   -4.4501    0.0000 C   0  0  0  0  0  0  0  0  0  0  0  0
   11.2193   -5.1646    0.0000 O   0  0  0  0  0  0  0  0  0  0  0  0
   11.2156   -3.7335    0.0000 N   0  0  0  0  0  0  0  0  0  0  0  0
   12.0406   -3.7293    0.0000 C   0  0  0  0  0  0  0  0  0  0  0  0
  2  1  1  0
  2  3  1  1
  5  4  1  0
  6 18  1  1
  7 16  1  0
  8  2  1  0
  2  7  1  0
  9  6  1  0
 10 14  1  0
 11 15  1  0
 12  5  1  0
 13  5  1  0
 14  8  1  0
 15  4  1  0
 16 21  1  0
 17 12  1  0
 18 10  1  0
 19  9  1  0
 20 24  1  0
 21  4  1  0
 22  6  1  0
 23 17  1  0
 24 23  1  0
 25 29  1  0
 19 26  1  1
 27  7  2  0
 28  8  2  0
 29 22  1  0
 30 11  2  0
 31 17  2  0
  9 32  1  6
 20 33  1  1
  4 34  1  6
 12 35  1  1
 14 36  1  6
 37 20  1  0
 21 38  1  6
 23 39  1  6
 40 26  1  0
 41 26  1  0
 29 42  1  1
 10 43  1  1
  5 44  1  1
 13 11  1  0
 20 10  1  0
 25 19  1  0
 38 45  1  0
 33 46  1  0
 46 47  1  0
 47 48  2  0
 48 49  1  0
 31 50  1  0
 50 51  1  0
 49 52  2  0
 52 56  1  0
 55 53  1  0
 53 54  2  0
 54 49  1  0
 55 56  2  0
 55 60  1  0
 56 57  1  0
 57 58  1  0
 58 59  2  0
 59 60  1  0
 57 61  2  0
 63 62  1  0
 64 63  1  0
 62 64  1  0
 60 62  1  0
 58 65  1  0
 65 66  2  0
 65 67  1  0
 67 68  1  0
M  END

> <chembl_id>
CHEMBL4574446

> <chembl_pref_name>
None


$$$$

     RDKit          2D

 52 54  0  0  1  0  0  0  0  0999 V2000
    2.6246   -1.6229    0.0000 C   0  0  0  0  0  0  0  0  0  0  0  0
    0.4892   -3.6845    0.0000 C   0  0  0  0  0  0  0  0  0  0  0  0
   -0.2290   -4.9191    0.0000 C   0  0  0  0  0  0  0  0  0  0  0  0
    0.4892   -4.5115    0.0000 C   0  0  0  0  0  0  0  0  0  0  0  0
    2.6129   -0.7959    0.0000 C   0  0  0  0  0  0  0  0  0  0  0  0
   -1.6500   -3.2769    0.0000 C   0  0  0  0  0  0  0  0  0  0  0  0
    1.1997   -2.4499    0.0000 C   0  0  0  0  0  0  0  0  0  0  0  0
    1.1997   -3.2769    0.0000 C   0  0  0  0  0  0  0  0  0  0  0  0
   -0.9395   -4.5115    0.0000 O   0  0  0  0  0  0  0  0  0  0  0  0
    0.4892   -2.0422    0.0000 C   0  0  0  0  0  0  0  0  0  0  0  0
    1.9141   -2.0422    0.0000 O   0  0  0  0  0  0  0  0  0  0  0  0
    2.6129   -5.7345    0.0000 C   0  0  0  0  0  0  0  0  0  0  0  0
    3.3234   -0.3766    0.0000 C   0  0  0  0  0  0  0  0  0  0  0  0
   -0.5319   -0.5048    0.0000 N   0  0  0  0  0  0  0  0  0  0  0  0
    1.9102   -4.5076    0.0000 C   0  0  0  0  0  0  0  0  0  0  0  0
   -1.6500   -2.4499    0.0000 C   0  0  0  0  0  0  0  0  0  0  0  0
    1.9025   -5.3268    0.0000 C   0  0  0  0  0  0  0  0  0  0  0  0
    3.3351   -2.0267    0.0000 O   0  0  0  0  0  0  0  0  0  0  0  0
    2.6129   -4.0922    0.0000 O   0  0  0  0  0  0  0  0  0  0  0  0
   -0.9395   -3.6845    0.0000 C   0  0  0  0  0  0  0  0  0  0  0  0
    3.3234   -5.3345    0.0000 C   0  0  0  0  0  0  0  0  0  0  0  0
   -0.9395   -2.0422    0.0000 C   0  0  0  0  0  0  0  0  0  0  0  0
    0.4892   -1.2153    0.0000 C   0  0  0  0  0  0  0  0  0  0  0  0
    1.1997   -4.0922    0.0000 O   0  0  0  0  0  0  0  0  0  0  0  0
    3.3234   -4.5115    0.0000 C   0  0  0  0  0  0  0  0  0  0  0  0
   -0.9395   -1.2153    0.0000 C   0  0  0  0  0  0  0  0  0  0  0  0
    0.0738   -0.5008    0.0000 C   0  0  0  0  0  0  0  0  0  0  0  0
    4.0417   -0.7843    0.0000 C   0  0  0  0  0  0  0  0  0  0  0  0
    3.3195    0.4426    0.0000 N   0  0  0  0  0  0  0  0  0  0  0  0
   -0.2290   -5.7461    0.0000 O   0  0  0  0  0  0  0  0  0  0  0  0
    4.0456   -1.6113    0.0000 C   0  0  0  0  0  0  0  0  0  0  0  0
   -2.3644   -2.8575    0.0000 O   0  0  0  0  0  0  0  0  0  0  0  0
    1.8908   -0.3883    0.0000 O   0  0  0  0  0  0  0  0  0  0  0  0
   -0.2290   -2.4460    0.0000 O   0  0  0  0  0  0  0  0  0  0  0  0
    3.0206   -6.4450    0.0000 O   0  0  0  0  0  0  0  0  0  0  0  0
    4.0339   -5.7461    0.0000 O   0  0  0  0  0  0  0  0  0  0  0  0
   -2.3644   -2.0383    0.0000 O   0  0  0  0  0  0  0  0  0  0  0  0
   -2.3644   -3.6690    0.0000 C   0  0  0  0  0  0  0  0  0  0  0  0
    1.1997   -4.9191    0.0000 C   0  0  0  0  0  0  0  0  0  0  0  0
    1.9141   -3.6845    0.0000 C   0  0  0  0  0  0  0  0  0  0  0  0
   -0.9434    0.2097    0.0000 C   0  0  0  0  0  0  0  0  0  0  0  0
    0.2863   -2.8899    0.0000 C   0  0  0  0  0  0  0  0  0  0  0  0
    2.0306   -6.3168    0.0000 C   0  0  0  0  0  0  0  0  0  0  0  0
   -1.6500   -1.6229    0.0000 C   0  0  0  0  0  0  0  0  0  0  0  0
   -1.6617   -4.0922    0.0000 C   0  0  0  0  0  0  0  0  0  0  0  0
    4.0417   -4.1038    0.0000 C   0  0  0  0  0  0  0  0  0  0  0  0
    0.4815    0.2174    0.0000 C   0  0  0  0  0  0  0  0  0  0  0  0
    2.6013    0.8503    0.0000 C   0  0  0  0  0  0  0  0  0  0  0  0
    4.0300    0.8580    0.0000 C   0  0  0  0  0  0  0  0  0  0  0  0
    4.7638   -2.0189    0.0000 C   0  0  0  0  0  0  0  0  0  0  0  0
    2.6013   -7.1555    0.0000 C   0  0  0  0  0  0  0  0  0  0  0  0
   -1.6656   -4.9075    0.0000 C   0  0  0  0  0  0  0  0  0  0  0  0
  2  8  1  0
  3  4  1  0
  4  2  1  0
  5  1  1  0
  6 20  1  0
  7 11  1  6
  8  7  1  0
  9  3  1  0
 10  7  1  0
  1 11  1  1
 12 17  1  0
 13  5  1  0
 14 27  1  0
 15 24  1  6
 16 22  1  0
 17 15  1  0
 18  1  1  0
 19 15  1  0
 20  9  1  0
 21 25  1  0
 22 26  1  0
 23 10  1  0
  2 24  1  1
 25 19  1  0
 26 14  1  0
 27 23  1  0
 28 31  1  0
 13 29  1  1
 30  3  2  0
 31 18  1  0
  6 32  1  1
  5 33  1  6
 10 34  1  6
 12 35  1  6
 21 36  1  6
 16 37  1  6
  6 38  1  0
  4 39  1  1
  8 40  1  1
 41 14  1  0
 10 42  1  0
 12 43  1  0
 22 44  1  6
 20 45  1  1
 25 46  1  1
 27 47  1  6
 48 29  1  0
 49 29  1  0
 31 50  1  1
 51 35  1  0
 52 45  1  0
 28 13  1  0
  6 16  1  0
 21 12  1  0
M  END

> <chembl_id>
CHEMBL273931

> <chembl_pref_name>
L-701677


$$$$

     RDKit          2D

 66 71  0  0  1  0  0  0  0  0999 V2000
    5.3417   -2.0292    0.0000 C   0  0  0  0  0  0  0  0  0  0  0  0
    9.4667   -2.9167    0.0000 N   0  0  0  0  0  0  0  0  0  0  0  0
    8.6667   -3.1292    0.0000 C   0  0  0  0  0  0  0  0  0  0  0  0
    5.3375   -1.2042    0.0000 C   0  0  0  0  0  0  0  0  0  0  0  0
    3.8292   -1.4000    0.0000 C   0  0  0  0  0  0  0  0  0  0  0  0
    4.6167   -0.7917    0.0000 N   0  0  0  0  0  0  0  0  0  0  0  0
    4.5417   -1.8125    0.0000 O   0  0  0  0  0  0  0  0  0  0  0  0
    7.2917   -2.3375    0.0000 C   0  0  0  0  0  0  0  0  0  0  0  0
    9.4625   -0.3292    0.0000 C   0  0  0  0  0  0  0  0  0  0  0  0
    6.0917   -0.8667    0.0000 C   0  0  0  0  0  0  0  0  0  0  0  0
    6.7000   -3.6042    0.0000 C   0  0  0  0  0  0  0  0  0  0  0  0
   10.1042   -3.4292    0.0000 C   0  0  0  0  0  0  0  0  0  0  0  0
    7.4000   -3.1542    0.0000 C   0  0  0  0  0  0  0  0  0  0  0  0
    9.4542    0.4958    0.0000 C   0  0  0  0  0  0  0  0  0  0  0  0
    8.0375   -1.1667    0.0000 C   0  0  0  0  0  0  0  0  0  0  0  0
    8.0875   -2.5500    0.0000 O   0  0  0  0  0  0  0  0  0  0  0  0
    8.0500   -2.0000    0.0000 C   0  0  0  0  0  0  0  0  0  0  0  0
    5.9750   -0.0542    0.0000 C   0  0  0  0  0  0  0  0  0  0  0  0
   10.1667    0.9083    0.0000 C   0  0  0  0  0  0  0  0  0  0  0  0
    6.0000   -3.1667    0.0000 O   0  0  0  0  0  0  0  0  0  0  0  0
    8.7500   -0.7500    0.0000 O   0  0  0  0  0  0  0  0  0  0  0  0
    7.2667   -0.8500    0.0000 C   0  0  0  0  0  0  0  0  0  0  0  0
    6.1042   -2.3542    0.0000 C   0  0  0  0  0  0  0  0  0  0  0  0
   10.1792   -0.7417    0.0000 O   0  0  0  0  0  0  0  0  0  0  0  0
   10.8000   -2.9792    0.0000 O   0  0  0  0  0  0  0  0  0  0  0  0
   10.1667    1.7333    0.0000 N   0  0  0  0  0  0  0  0  0  0  0  0
    6.6667    0.3958    0.0000 C   0  0  0  0  0  0  0  0  0  0  0  0
    7.3750   -0.0292    0.0000 C   0  0  0  0  0  0  0  0  0  0  0  0
    4.5667    0.0333    0.0000 C   0  0  0  0  0  0  0  0  0  0  0  0
   10.8875    0.4958    0.0000 C   0  0  0  0  0  0  0  0  0  0  0  0
    9.7625   -2.1417    0.0000 C   0  0  0  0  0  0  0  0  0  0  0  0
    8.4542   -3.9292    0.0000 O   0  0  0  0  0  0  0  0  0  0  0  0
   11.5917    1.7375    0.0000 C   0  0  0  0  0  0  0  0  0  0  0  0
    2.9792    2.4083    0.0000 C   0  0  0  0  0  0  0  0  0  0  0  0
    3.0042   -1.4542    0.0000 O   0  0  0  0  0  0  0  0  0  0  0  0
   10.8792    2.1458    0.0000 C   0  0  0  0  0  0  0  0  0  0  0  0
   12.0042    1.0250    0.0000 C   0  0  0  0  0  0  0  0  0  0  0  0
   12.4167    1.7458    0.0000 C   0  0  0  0  0  0  0  0  0  0  0  0
    6.7042   -4.4292    0.0000 O   0  0  0  0  0  0  0  0  0  0  0  0
   10.0667   -4.2542    0.0000 O   0  0  0  0  0  0  0  0  0  0  0  0
   10.8875   -0.3292    0.0000 C   0  0  0  0  0  0  0  0  0  0  0  0
    5.2250    0.2875    0.0000 O   0  0  0  0  0  0  0  0  0  0  0  0
    3.6667    2.8708    0.0000 C   0  0  0  0  0  0  0  0  0  0  0  0
   10.5792   -2.1875    0.0000 C   0  0  0  0  0  0  0  0  0  0  0  0
    3.0375    1.5833    0.0000 C   0  0  0  0  0  0  0  0  0  0  0  0
    8.7375    0.9000    0.0000 O   0  0  0  0  0  0  0  0  0  0  0  0
    4.6292   -2.4375    0.0000 C   0  0  0  0  0  0  0  0  0  0  0  0
    4.4042    2.5000    0.0000 C   0  0  0  0  0  0  0  0  0  0  0  0
    7.6792   -0.1292    0.0000 O   0  0  0  0  0  0  0  0  0  0  0  0
    3.7667    1.2208    0.0000 C   0  0  0  0  0  0  0  0  0  0  0  0
    3.8250    0.4000    0.0000 C   0  0  0  0  0  0  0  0  0  0  0  0
    2.2375    2.7708    0.0000 Cl  0  0  0  0  0  0  0  0  0  0  0  0
    5.3750   -0.4542    0.0000 C   0  0  0  0  0  0  0  0  0  0  0  0
    3.6125    3.6875    0.0000 Cl  0  0  0  0  0  0  0  0  0  0  0  0
    8.1500   -3.5042    0.0000 C   0  0  0  0  0  0  0  0  0  0  0  0
    4.4625    1.6833    0.0000 C   0  0  0  0  0  0  0  0  0  0  0  0
    8.8417   -2.2125    0.0000 C   0  0  0  0  0  0  0  0  0  0  0  0
    7.9792   -0.4292    0.0000 C   0  0  0  0  0  0  0  0  0  0  0  0
    9.4542    2.1458    0.0000 C   0  0  0  0  0  0  0  0  0  0  0  0
    5.3917   -2.7667    0.0000 C   0  0  0  0  0  0  0  0  0  0  0  0
    6.6667    1.2208    0.0000 C   0  0  0  0  0  0  0  0  0  0  0  0
    9.1750   -1.5542    0.0000 C   0  0  0  0  0  0  0  0  0  0  0  0
   11.6042   -0.7417    0.0000 C   0  0  0  0  0  0  0  0  0  0  0  0
    7.6750    0.6958    0.0000 C   0  0  0  0  0  0  0  0  0  0  0  0
    5.3875   -3.5917    0.0000 C   0  0  0  0  0  0  0  0  0  0  0  0
    5.3870   -0.2054    0.0000 H   0  0  0  0  0  0  0  0  0  0  0  0
  2  3  1  0
  3 16  1  0
  4  1  1  0
  5  7  1  0
  4  6  1  0
  1  7  1  0
  8 13  1  0
  9 21  1  1
 10  4  1  0
 11 20  1  0
 12  2  1  0
 13 11  1  0
 14  9  1  0
 15 17  1  0
  8 16  1  1
 17  8  1  0
 18 10  1  0
 19 14  1  0
 20 23  1  0
 15 21  1  6
 22 28  1  0
 23  1  1  0
 24  9  1  0
 25 12  1  0
 19 26  1  1
 27 18  1  0
 28 27  1  0
 29  6  1  0
 30 41  1  0
 31  2  1  0
 32  3  2  0
 33 36  1  0
 34 45  2  0
 35  5  2  0
 36 26  1  0
 37 33  1  0
 38 33  1  0
 39 11  2  0
 40 12  2  0
 41 24  1  0
 42 18  2  0
 43 48  2  0
 44 31  1  0
 45 50  1  0
 14 46  1  6
  1 47  1  6
 48 56  1  0
 22 49  1  0
 50 51  1  0
 51 29  1  0
 52 34  1  0
 10 53  1  6
 54 43  1  0
 13 55  1  1
 56 50  2  0
 17 57  1  1
 22 58  1  1
 59 26  1  0
 23 60  1  1
 27 61  1  6
 31 62  1  1
 41 63  1  1
 64 49  1  0
 65 60  1  0
  6  5  1  0
 15 22  1  0
 43 34  1  0
 44 25  1  0
 30 19  1  0
 37 38  1  0
  4 66  1  1
M  END

> <chembl_id>
CHEMBL303274

> <chembl_pref_name>
None


$$$$

     RDKit          2D

 52 54  0  0  0  0  0  0  0  0999 V2000
    1.2810    0.3782    0.0000 C   0  0  0  0  0  0  0  0  0  0  0  0
    1.0432   -0.4118    0.0000 C   0  0  0  0  0  0  0  0  0  0  0  0
    0.2184   -0.4297    0.0000 C   0  0  0  0  0  0  0  0  0  0  0  0
   -0.0535    0.3492    0.0000 C   0  0  0  0  0  0  0  0  0  0  0  0
   -0.8254    0.8175    0.0000 C   0  0  0  0  0  0  0  0  0  0  0  0
   -0.8433    1.6423    0.0000 C   0  0  0  0  0  0  0  0  0  0  0  0
   -1.5665    2.0392    0.0000 C   0  0  0  0  0  0  0  0  0  0  0  0
   -1.5844    2.8640    0.0000 C   0  0  0  0  0  0  0  0  0  0  0  0
   -0.8791    3.2919    0.0000 C   0  0  0  0  0  0  0  0  0  0  0  0
   -0.1558    2.8950    0.0000 N   0  0  0  0  0  0  0  0  0  0  0  0
    0.5495    3.3229    0.0000 C   0  0  0  0  0  0  0  0  0  0  0  0
    1.2728    2.9260    0.0000 C   0  0  0  0  0  0  0  0  0  0  0  0
    1.2907    2.1012    0.0000 C   0  0  0  0  0  0  0  0  0  0  0  0
    2.0139    1.7043    0.0000 C   0  0  0  0  0  0  0  0  0  0  0  0
    2.7193    2.1322    0.0000 C   0  0  0  0  0  0  0  0  0  0  0  0
    3.4425    1.7354    0.0000 C   0  0  0  0  0  0  0  0  0  0  0  0
    1.5425   -1.0685    0.0000 C   0  0  0  0  0  0  0  0  0  0  0  0
    0.5877    0.8684    0.0000 C   0  0  0  0  0  0  0  0  0  0  0  0
   -1.4241    1.0564    0.0000 C   0  0  0  0  0  0  0  0  0  0  0  0
   -2.3077    3.2609    0.0000 C   0  0  0  0  0  0  0  0  0  0  0  0
   -0.1379    2.0702    0.0000 C   0  0  0  0  0  0  0  0  0  0  0  0
    0.5316    4.1477    0.0000 C   0  0  0  0  0  0  0  0  0  0  0  0
    2.0786    2.3458    0.0000 C   0  0  0  0  0  0  0  0  0  0  0  0
    0.8021    1.0499    0.0000 O   0  0  0  0  0  0  0  0  0  0  0  0
   -1.6312    1.3977    0.0000 O   0  0  0  0  0  0  0  0  0  0  0  0
    1.9781    3.3539    0.0000 O   0  0  0  0  0  0  0  0  0  0  0  0
    1.8715    2.6871    0.0000 O   0  0  0  0  0  0  0  0  0  0  0  0
    2.0318    0.8795    0.0000 O   0  0  0  0  0  0  0  0  0  0  0  0
   -1.5398   -0.4200    0.0000 C   0  0  0  0  0  0  0  0  0  0  0  0
   -2.2543   -0.8325    0.0000 C   0  0  0  0  0  0  0  0  0  0  0  0
   -2.2543   -1.6575    0.0000 C   0  0  0  0  0  0  0  0  0  0  0  0
   -1.5398   -2.0700    0.0000 C   0  0  0  0  0  0  0  0  0  0  0  0
   -0.8254   -1.6575    0.0000 C   0  0  0  0  0  0  0  0  0  0  0  0
   -0.7391   -2.4780    0.0000 C   0  0  0  0  0  0  0  0  0  0  0  0
   -3.6832   -1.6575    0.0000 C   0  0  0  0  0  0  0  0  0  0  0  0
   -2.9688   -2.8950    0.0000 C   0  0  0  0  0  0  0  0  0  0  0  0
   -1.5398    0.4050    0.0000 O   0  0  0  0  0  0  0  0  0  0  0  0
   -2.9688   -0.4200    0.0000 O   0  0  0  0  0  0  0  0  0  0  0  0
   -2.9688   -2.0700    0.0000 N   0  0  0  0  0  0  0  0  0  0  0  0
   -0.8254   -0.8325    0.0000 O   0  0  0  0  0  0  0  0  0  0  0  0
    0.0999   -1.8537    0.0000 C   0  0  0  0  0  0  0  0  0  0  0  0
    0.9221   -1.9221    0.0000 C   0  0  0  0  0  0  0  0  0  0  0  0
    1.2739   -2.6683    0.0000 C   0  0  0  0  0  0  0  0  0  0  0  0
    0.8036   -3.3461    0.0000 C   0  0  0  0  0  0  0  0  0  0  0  0
   -0.0186   -3.2777    0.0000 C   0  0  0  0  0  0  0  0  0  0  0  0
   -0.4889   -3.9555    0.0000 C   0  0  0  0  0  0  0  0  0  0  0  0
    1.9677   -3.1147    0.0000 C   0  0  0  0  0  0  0  0  0  0  0  0
    2.6929   -2.8365    0.0000 C   0  0  0  0  0  0  0  0  0  0  0  0
   -0.2519   -1.1075    0.0000 O   0  0  0  0  0  0  0  0  0  0  0  0
    2.0319   -2.3428    0.0000 O   0  0  0  0  0  0  0  0  0  0  0  0
    1.1554   -4.0924    0.0000 O   0  0  0  0  0  0  0  0  0  0  0  0
   -0.3704   -2.5315    0.0000 O   0  0  0  0  0  0  0  0  0  0  0  0
  1  2  1  0
  1 24  2  0
  1 28  1  0
  2  3  1  0
  2 17  1  6
  3  4  1  0
  3 49  1  1
  4  5  1  0
  4 18  1  1
  5  6  1  0
  5 37  1  1
  6  7  1  0
  6 19  1  1
  6 25  1  6
  7  8  1  0
  8  9  1  0
  8 20  1  1
  9 10  1  0
 11 10  1  0
 21 10  1  0
 11 12  1  0
 11 22  1  6
 12 13  1  0
 12 26  1  1
 13 14  1  0
 13 23  1  1
 13 27  1  6
 14 15  1  1
 14 28  1  0
 15 16  1  0
 29 30  1  0
 29 37  1  6
 29 40  1  0
 30 31  1  0
 30 38  1  1
 31 32  1  0
 31 39  1  6
 32 33  1  0
 33 34  1  6
 33 40  1  0
 35 39  1  0
 36 39  1  0
 41 42  1  0
 41 49  1  1
 41 52  1  0
 42 43  1  0
 43 44  1  0
 43 47  1  6
 43 50  1  1
 44 45  1  0
 44 51  1  1
 45 46  1  6
 45 52  1  0
 48 50  1  0
M  END

> <chembl_id>
CHEMBL529

> <chembl_pref_name>
AZITHROMYCIN


$$$$

     RDKit          2D

 52 54  0  0  1  0  0  0  0  0999 V2000
   -1.2948    5.6332    0.0000 C   0  0  0  0  0  0  0  0  0  0  0  0
    2.6351    2.1015    0.0000 C   0  0  0  0  0  0  0  0  0  0  0  0
    3.2860   -0.7500    0.0000 C   0  0  0  0  0  0  0  0  0  0  0  0
    0.0000   -3.3705    0.0000 C   0  0  0  0  0  0  0  0  0  0  0  0
    3.2860    0.7500    0.0000 C   0  0  0  0  0  0  0  0  0  0  0  0
   -2.5944    4.8840    0.0000 C   0  0  0  0  0  0  0  0  0  0  0  0
    0.0000    3.3705    0.0000 C   0  0  0  0  0  0  0  0  0  0  0  0
    1.4624    3.0367    0.0000 C   0  0  0  0  0  0  0  0  0  0  0  0
   -2.6351   -2.1015    0.0000 C   0  0  0  0  0  0  0  0  0  0  0  0
    2.6351   -2.1015    0.0000 O   0  0  0  0  0  0  0  0  0  0  0  0
   -1.4624   -3.0367    0.0000 C   0  0  0  0  0  0  0  0  0  0  0  0
   -3.2860   -0.7500    0.0000 C   0  0  0  0  0  0  0  0  0  0  0  0
    0.0030    4.8795    0.0000 O   0  0  0  0  0  0  0  0  0  0  0  0
    4.5283    6.9502    0.0000 C   0  0  0  0  0  0  0  0  0  0  0  0
   -3.8930    5.6347    0.0000 C   0  0  0  0  0  0  0  0  0  0  0  0
   -1.4624    3.0367    0.0000 C   0  0  0  0  0  0  0  0  0  0  0  0
    3.5874    4.5284    0.0000 C   0  0  0  0  0  0  0  0  0  0  0  0
    4.7569    5.4677    0.0000 C   0  0  0  0  0  0  0  0  0  0  0  0
   -1.2941    7.1333    0.0000 O   0  0  0  0  0  0  0  0  0  0  0  0
    2.1892    5.0718    0.0000 O   0  0  0  0  0  0  0  0  0  0  0  0
    1.4624   -3.0367    0.0000 C   0  0  0  0  0  0  0  0  0  0  0  0
    3.1302    7.4934    0.0000 C   0  0  0  0  0  0  0  0  0  0  0  0
    3.8131    3.0446    0.0000 O   0  0  0  0  0  0  0  0  0  0  0  0
    1.9606    6.5542    0.0000 C   0  0  0  0  0  0  0  0  0  0  0  0
   -3.2860    0.7500    0.0000 C   0  0  0  0  0  0  0  0  0  0  0  0
   -2.6352    2.1014    0.0000 C   0  0  0  0  0  0  0  0  0  0  0  0
   -3.8922    7.1347    0.0000 C   0  0  0  0  0  0  0  0  0  0  0  0
   -5.1947    4.8877    0.0000 N   0  0  0  0  0  0  0  0  0  0  0  0
    4.4559   -1.0170    0.0000 O   0  0  0  0  0  0  0  0  0  0  0  0
   -2.5927    7.8840    0.0000 C   0  0  0  0  0  0  0  0  0  0  0  0
   -4.4559   -1.0170    0.0000 O   0  0  0  0  0  0  0  0  0  0  0  0
    1.0687   -3.9163    0.0000 O   0  0  0  0  0  0  0  0  0  0  0  0
   -2.5951    3.6840    0.0000 O   0  0  0  0  0  0  0  0  0  0  0  0
   -1.9830   -4.1179    0.0000 O   0  0  0  0  0  0  0  0  0  0  0  0
    4.2668    8.4073    0.0000 O   0  0  0  0  0  0  0  0  0  0  0  0
   -0.5786    4.1974    0.0000 O   0  0  0  0  0  0  0  0  0  0  0  0
    2.9473    8.6794    0.0000 O   0  0  0  0  0  0  0  0  0  0  0  0
   -1.0687   -3.9163    0.0000 C   0  0  0  0  0  0  0  0  0  0  0  0
    4.4559    1.0170    0.0000 C   0  0  0  0  0  0  0  0  0  0  0  0
    1.9830    4.1179    0.0000 C   0  0  0  0  0  0  0  0  0  0  0  0
   -3.5733   -2.8497    0.0000 C   0  0  0  0  0  0  0  0  0  0  0  0
    5.6359    6.4883    0.0000 C   0  0  0  0  0  0  0  0  0  0  0  0
   -2.6621    3.0636    0.0000 C   0  0  0  0  0  0  0  0  0  0  0  0
    2.1198   -4.3949    0.0000 C   0  0  0  0  0  0  0  0  0  0  0  0
    0.8421    6.9889    0.0000 C   0  0  0  0  0  0  0  0  0  0  0  0
   -4.4559    1.0170    0.0000 C   0  0  0  0  0  0  0  0  0  0  0  0
   -6.2328    5.4898    0.0000 C   0  0  0  0  0  0  0  0  0  0  0  0
   -5.1975    3.6877    0.0000 C   0  0  0  0  0  0  0  0  0  0  0  0
   -2.5920    9.0840    0.0000 C   0  0  0  0  0  0  0  0  0  0  0  0
    0.6181    4.1083    0.0000 C   0  0  0  0  0  0  0  0  0  0  0  0
    5.1640    9.2042    0.0000 C   0  0  0  0  0  0  0  0  0  0  0  0
    3.3166   -4.4830    0.0000 C   0  0  0  0  0  0  0  0  0  0  0  0
  2  8  1  0
  3  5  1  0
  4 11  1  0
  5  2  1  0
  6  1  1  0
  7 13  1  6
  8  7  1  0
  9 12  1  0
 10  3  1  0
 11  9  1  0
 12 25  1  0
  1 13  1  1
 14 18  1  0
 15  6  1  0
 16  7  1  0
 17 23  1  6
 18 17  1  0
 19  1  1  0
 20 17  1  0
 21 10  1  0
 22 24  1  0
  2 23  1  6
 24 20  1  0
 25 26  1  0
 26 16  1  0
 27 30  1  0
 15 28  1  1
 29  3  2  0
 30 19  1  0
 31 12  2  0
  4 32  1  1
  6 33  1  6
 11 34  1  6
 14 35  1  0
 16 36  1  0
 22 37  1  6
 38  4  1  0
  5 39  1  1
  8 40  1  1
  9 41  1  1
 14 42  1  1
 16 43  1  6
 21 44  1  6
 24 45  1  1
 25 46  1  6
 47 28  1  0
 48 28  1  0
 30 49  1  1
 50 36  1  0
 51 35  1  0
 52 44  1  0
 27 15  1  0
 21  4  1  0
 22 14  1  0
M  END

> <chembl_id>
CHEMBL1741

> <chembl_pref_name>
CLARITHROMYCIN


$$$$
