
     RDKit          2D

 54 56  0  0  0  0  0  0  0  0999 V2000
   -3.2320    0.6124    0.0000 C   0  0  0  0  0  0  0  0  0  0  0  0
   -1.0574    2.1004    0.0000 C   0  0  0  0  0  0  0  0  0  0  0  0
    0.6448    2.3632    0.0000 C   0  0  0  0  0  0  0  0  0  0  0  0
    2.5006    0.9626    0.0000 C   0  0  0  0  0  0  0  0  0  0  0  0
   -0.2910    2.7388    0.0000 C   0  0  0  0  0  0  0  0  0  0  0  0
   -4.1278    0.1348    0.0000 C   0  0  0  0  0  0  0  0  0  0  0  0
   -1.5054    0.4106    0.0000 C   0  0  0  0  0  0  0  0  0  0  0  0
    3.1130    0.1672    0.0000 C   0  0  0  0  0  0  0  0  0  0  0  0
   -0.8160    1.1326    0.0000 C   0  0  0  0  0  0  0  0  0  0  0  0
    1.6992   -0.7996    0.0000 N   0  0  0  0  0  0  0  0  0  0  0  0
    0.7266    1.3622    0.0000 O   0  0  0  0  0  0  0  0  0  0  0  0
   -2.4204    0.0598    0.0000 O   0  0  0  0  0  0  0  0  0  0  0  0
   -1.2020    4.6328    0.0000 C   0  0  0  0  0  0  0  0  0  0  0  0
   -4.9946    0.6288    0.0000 C   0  0  0  0  0  0  0  0  0  0  0  0
   -1.1784   -0.5330    0.0000 C   0  0  0  0  0  0  0  0  0  0  0  0
   -2.4422    3.3792    0.0000 C   0  0  0  0  0  0  0  0  0  0  0  0
    2.6968   -0.7446    0.0000 C   0  0  0  0  0  0  0  0  0  0  0  0
   -1.4806    3.6538    0.0000 C   0  0  0  0  0  0  0  0  0  0  0  0
   -3.2328    1.6038    0.0000 O   0  0  0  0  0  0  0  0  0  0  0  0
   -3.1398    4.1026    0.0000 O   0  0  0  0  0  0  0  0  0  0  0  0
    1.5214    0.7430    0.0000 C   0  0  0  0  0  0  0  0  0  0  0  0
   -1.9210    5.3322    0.0000 C   0  0  0  0  0  0  0  0  0  0  0  0
   -2.0612    2.3978    0.0000 O   0  0  0  0  0  0  0  0  0  0  0  0
   -2.8916    5.0880    0.0000 C   0  0  0  0  0  0  0  0  0  0  0  0
   -4.9604    1.6192    0.0000 C   0  0  0  0  0  0  0  0  0  0  0  0
    1.2054   -1.6692    0.0000 C   0  0  0  0  0  0  0  0  0  0  0  0
   -5.8550    0.1392    0.0000 N   0  0  0  0  0  0  0  0  0  0  0  0
   -0.1932   -0.6896    0.0000 C   0  0  0  0  0  0  0  0  0  0  0  0
    1.4522    2.9610    0.0000 O   0  0  0  0  0  0  0  0  0  0  0  0
   -4.0816    2.1290    0.0000 C   0  0  0  0  0  0  0  0  0  0  0  0
    0.2072   -1.6050    0.0000 C   0  0  0  0  0  0  0  0  0  0  0  0
    2.3342    1.9436    0.0000 O   0  0  0  0  0  0  0  0  0  0  0  0
   -4.1406   -0.8752    0.0000 O   0  0  0  0  0  0  0  0  0  0  0  0
    4.1114    0.2708    0.0000 O   0  0  0  0  0  0  0  0  0  0  0  0
   -1.3450   -1.5164    0.0000 O   0  0  0  0  0  0  0  0  0  0  0  0
   -0.6546    5.4576    0.0000 O   0  0  0  0  0  0  0  0  0  0  0  0
   -1.6574    6.3074    0.0000 O   0  0  0  0  0  0  0  0  0  0  0  0
    3.2928    1.5798    0.0000 C   0  0  0  0  0  0  0  0  0  0  0  0
    2.2246   -1.6514    0.0000 C   0  0  0  0  0  0  0  0  0  0  0  0
   -0.4784    3.6832    0.0000 C   0  0  0  0  0  0  0  0  0  0  0  0
    0.1524    0.8764    0.0000 C   0  0  0  0  0  0  0  0  0  0  0  0
   -0.2508    4.2386    0.0000 C   0  0  0  0  0  0  0  0  0  0  0  0
   -2.1182   -0.8690    0.0000 C   0  0  0  0  0  0  0  0  0  0  0  0
    3.2584   -1.5774    0.0000 C   0  0  0  0  0  0  0  0  0  0  0  0
    1.3128   -0.2140    0.0000 C   0  0  0  0  0  0  0  0  0  0  0  0
   -3.5906    5.7888    0.0000 C   0  0  0  0  0  0  0  0  0  0  0  0
   -6.7182    0.6412    0.0000 C   0  0  0  0  0  0  0  0  0  0  0  0
   -5.8584   -0.8624    0.0000 C   0  0  0  0  0  0  0  0  0  0  0  0
   -4.0694    3.1188    0.0000 C   0  0  0  0  0  0  0  0  0  0  0  0
   -0.3690   -2.4208    0.0000 C   0  0  0  0  0  0  0  0  0  0  0  0
    0.3438    5.3844    0.0000 C   0  0  0  0  0  0  0  0  0  0  0  0
    0.3794   -0.5014    0.0000 C   0  0  0  0  0  0  0  0  0  0  0  0
   -3.2796    2.8454    0.0000 H   0  0  0  0  0  0  0  0  0  0  0  0
   -2.2550    1.0734    0.0000 H   0  0  0  0  0  0  0  0  0  0  0  0
  2  9  1  0
  3  5  1  0
  4 21  1  0
  5  2  1  0
  6  1  1  0
  7 12  1  0
  8 17  1  0
  9  7  1  0
 10 26  1  0
 11  3  1  0
  1 12  1  1
 13 18  1  0
 14  6  1  0
 15  7  1  0
 16 23  1  0
 17 10  1  0
 18 16  1  0
 19  1  1  0
 20 16  1  0
 21 11  1  0
 22 24  1  0
  2 23  1  6
 24 20  1  0
 25 30  1  0
 26 31  1  0
 14 27  1  1
 28 15  1  0
 29  3  2  0
 30 19  1  0
 31 28  1  0
  4 32  1  1
  6 33  1  6
  8 34  1  6
 15 35  1  1
 13 36  1  1
 22 37  1  1
 38  4  1  0
 39 10  1  0
  5 40  1  1
  9 41  1  1
 42 13  1  0
 43 15  1  0
 17 44  1  1
 21 45  1  6
 24 46  1  6
 47 27  1  0
 48 27  1  0
 30 49  1  1
 31 50  1  6
 51 36  1  0
 52 45  1  0
 16 53  1  6
  7 54  1  1
 14 25  1  0
  8  4  1  0
 13 22  1  0
M  END

> <chembl_id>
CHEMBL4299381

> <chembl_pref_name>
None

$$$$

     RDKit          2D

 52 54  0  0  0  0  0  0  0  0999 V2000
    1.2810    0.3782    0.0000 C   0  0  0  0  0  0  0  0  0  0  0  0
    1.0432   -0.4118    0.0000 C   0  0  0  0  0  0  0  0  0  0  0  0
    0.2184   -0.4297    0.0000 C   0  0  0  0  0  0  0  0  0  0  0  0
   -0.0535    0.3492    0.0000 C   0  0  0  0  0  0  0  0  0  0  0  0
   -0.8254    0.8175    0.0000 C   0  0  0  0  0  0  0  0  0  0  0  0
   -0.8433    1.6423    0.0000 C   0  0  0  0  0  0  0  0  0  0  0  0
   -1.5665    2.0392    0.0000 C   0  0  0  0  0  0  0  0  0  0  0  0
   -1.5844    2.8640    0.0000 C   0  0  0  0  0  0  0  0  0  0  0  0
   -0.8791    3.2919    0.0000 C   0  0  0  0  0  0  0  0  0  0  0  0
   -0.1558    2.8950    0.0000 N   0  0  0  0  0  0  0  0  0  0  0  0
    0.5495    3.3229    0.0000 C   0  0  0  0  0  0  0  0  0  0  0  0
    1.2728    2.9260    0.0000 C   0  0  0  0  0  0  0  0  0  0  0  0
    1.2907    2.1012    0.0000 C   0  0  0  0  0  0  0  0  0  0  0  0
    2.0139    1.7043    0.0000 C   0  0  0  0  0  0  0  0  0  0  0  0
    2.7193    2.1322    0.0000 C   0  0  0  0  0  0  0  0  0  0  0  0
    3.4425    1.7354    0.0000 C   0  0  0  0  0  0  0  0  0  0  0  0
    1.5425   -1.0685    0.0000 C   0  0  0  0  0  0  0  0  0  0  0  0
    0.5877    0.8684    0.0000 C   0  0  0  0  0  0  0  0  0  0  0  0
   -1.4241    1.0564    0.0000 C   0  0  0  0  0  0  0  0  0  0  0  0
   -2.3077    3.2609    0.0000 C   0  0  0  0  0  0  0  0  0  0  0  0
   -0.1379    2.0702    0.0000 C   0  0  0  0  0  0  0  0  0  0  0  0
    0.5316    4.1477    0.0000 C   0  0  0  0  0  0  0  0  0  0  0  0
    2.0786    2.3458    0.0000 C   0  0  0  0  0  0  0  0  0  0  0  0
    0.8021    1.0499    0.0000 O   0  0  0  0  0  0  0  0  0  0  0  0
   -1.6312    1.3977    0.0000 O   0  0  0  0  0  0  0  0  0  0  0  0
    1.9781    3.3539    0.0000 O   0  0  0  0  0  0  0  0  0  0  0  0
    1.8715    2.6871    0.0000 O   0  0  0  0  0  0  0  0  0  0  0  0
    2.0318    0.8795    0.0000 O   0  0  0  0  0  0  0  0  0  0  0  0
   -1.5398   -0.4200    0.0000 C   0  0  0  0  0  0  0  0  0  0  0  0
   -2.2543   -0.8325    0.0000 C   0  0  0  0  0  0  0  0  0  0  0  0
   -2.2543   -1.6575    0.0000 C   0  0  0  0  0  0  0  0  0  0  0  0
   -1.5398   -2.0700    0.0000 C   0  0  0  0  0  0  0  0  0  0  0  0
   -0.8254   -1.6575    0.0000 C   0  0  0  0  0  0  0  0  0  0  0  0
   -0.7391   -2.4780    0.0000 C   0  0  0  0  0  0  0  0  0  0  0  0
   -3.6832   -1.6575    0.0000 C   0  0  0  0  0  0  0  0  0  0  0  0
   -2.9688   -2.8950    0.0000 C   0  0  0  0  0  0  0  0  0  0  0  0
   -1.5398    0.4050    0.0000 O   0  0  0  0  0  0  0  0  0  0  0  0
   -2.9688   -0.4200    0.0000 O   0  0  0  0  0  0  0  0  0  0  0  0
   -2.9688   -2.0700    0.0000 N   0  0  0  0  0  0  0  0  0  0  0  0
   -0.8254   -0.8325    0.0000 O   0  0  0  0  0  0  0  0  0  0  0  0
    0.0999   -1.8537    0.0000 C   0  0  0  0  0  0  0  0  0  0  0  0
    0.9221   -1.9221    0.0000 C   0  0  0  0  0  0  0  0  0  0  0  0
    1.2739   -2.6683    0.0000 C   0  0  0  0  0  0  0  0  0  0  0  0
    0.8036   -3.3461    0.0000 C   0  0  0  0  0  0  0  0  0  0  0  0
   -0.0186   -3.2777    0.0000 C   0  0  0  0  0  0  0  0  0  0  0  0
   -0.4889   -3.9555    0.0000 C   0  0  0  0  0  0  0  0  0  0  0  0
    1.9677   -3.1147    0.0000 C   0  0  0  0  0  0  0  0  0  0  0  0
    2.6929   -2.8365    0.0000 C   0  0  0  0  0  0  0  0  0  0  0  0
   -0.2519   -1.1075    0.0000 O   0  0  0  0  0  0  0  0  0  0  0  0
    2.0319   -2.3428    0.0000 O   0  0  0  0  0  0  0  0  0  0  0  0
    1.1554   -4.0924    0.0000 O   0  0  0  0  0  0  0  0  0  0  0  0
   -0.3704   -2.5315    0.0000 O   0  0  0  0  0  0  0  0  0  0  0  0
  1  2  1  0
  1 24  2  0
  1 28  1  0
  2  3  1  0
  2 17  1  6
  3  4  1  0
  3 49  1  1
  4  5  1  0
  4 18  1  1
  5  6  1  0
  5 37  1  1
  6  7  1  0
  6 19  1  1
  6 25  1  6
  7  8  1  0
  8  9  1  0
  8 20  1  1
  9 10  1  0
 11 10  1  0
 21 10  1  0
 11 12  1  0
 11 22  1  6
 12 13  1  0
 12 26  1  1
 13 14  1  0
 13 23  1  1
 13 27  1  6
 14 15  1  1
 14 28  1  0
 15 16  1  0
 29 30  1  0
 29 37  1  6
 29 40  1  0
 30 31  1  0
 30 38  1  1
 31 32  1  0
 31 39  1  6
 32 33  1  0
 33 34  1  6
 33 40  1  0
 35 39  1  0
 36 39  1  0
 41 42  1  0
 41 49  1  1
 41 52  1  0
 42 43  1  0
 43 44  1  0
 43 47  1  6
 43 50  1  1
 44 45  1  0
 44 51  1  1
 45 46  1  6
 45 52  1  0
 48 50  1  0
M  END

> <chembl_id>
CHEMBL529

> <chembl_pref_name>
AZITHROMYCIN

$$$$

     RDKit          2D

 56 57  0  0  0  0  0  0  0  0999 V2000
    9.0792   -5.8125    0.0000 O   0  0  0  0  0  0  0  0  0  0  0  0
   11.0875   -2.7000    0.0000 C   0  0  0  0  0  0  0  0  0  0  0  0
    8.8250   -1.6042    0.0000 C   0  0  0  0  0  0  0  0  0  0  0  0
    7.6042   -1.6042    0.0000 C   0  0  0  0  0  0  0  0  0  0  0  0
    6.9917    0.1583    0.0000 C   0  0  0  0  0  0  0  0  0  0  0  0
    8.2167   -1.9542    0.0000 C   0  0  0  0  0  0  0  0  0  0  0  0
   10.7375   -3.3125    0.0000 C   0  0  0  0  0  0  0  0  0  0  0  0
    9.4375   -0.5500    0.0000 C   0  0  0  0  0  0  0  0  0  0  0  0
    7.6042    0.5000    0.0000 C   0  0  0  0  0  0  0  0  0  0  0  0
    8.8250   -0.9000    0.0000 C   0  0  0  0  0  0  0  0  0  0  0  0
    7.8917    1.8500    0.0000 N   0  0  0  0  0  0  0  0  0  0  0  0
    7.6042   -0.9042    0.0000 O   0  0  0  0  0  0  0  0  0  0  0  0
   11.0792   -1.7542    0.0000 O   0  0  0  0  0  0  0  0  0  0  0  0
    7.4375   -4.6875    0.0000 C   0  0  0  0  0  0  0  0  0  0  0  0
   10.0292   -3.3125    0.0000 C   0  0  0  0  0  0  0  0  0  0  0  0
    9.4375    0.1583    0.0000 C   0  0  0  0  0  0  0  0  0  0  0  0
    8.4958   -4.0750    0.0000 C   0  0  0  0  0  0  0  0  0  0  0  0
    7.6042    1.2083    0.0000 C   0  0  0  0  0  0  0  0  0  0  0  0
    8.1417   -4.6875    0.0000 C   0  0  0  0  0  0  0  0  0  0  0  0
   10.7375   -2.0875    0.0000 O   0  0  0  0  0  0  0  0  0  0  0  0
    8.1417   -3.4625    0.0000 O   0  0  0  0  0  0  0  0  0  0  0  0
    6.9917   -0.5542    0.0000 C   0  0  0  0  0  0  0  0  0  0  0  0
    7.0792   -4.0750    0.0000 C   0  0  0  0  0  0  0  0  0  0  0  0
    9.4375   -1.9542    0.0000 O   0  0  0  0  0  0  0  0  0  0  0  0
    7.4375   -3.4625    0.0000 C   0  0  0  0  0  0  0  0  0  0  0  0
    9.6708   -2.7000    0.0000 C   0  0  0  0  0  0  0  0  0  0  0  0
    8.6042    1.8458    0.0000 C   0  0  0  0  0  0  0  0  0  0  0  0
    9.6750   -3.9250    0.0000 N   0  0  0  0  0  0  0  0  0  0  0  0
    8.8250    0.5083    0.0000 C   0  0  0  0  0  0  0  0  0  0  0  0
    6.9875   -1.9625    0.0000 O   0  0  0  0  0  0  0  0  0  0  0  0
   10.0292   -2.0875    0.0000 C   0  0  0  0  0  0  0  0  0  0  0  0
    8.8250    1.2083    0.0000 C   0  0  0  0  0  0  0  0  0  0  0  0
    6.6292    0.7708    0.0000 O   0  0  0  0  0  0  0  0  0  0  0  0
   11.0917   -3.9250    0.0000 O   0  0  0  0  0  0  0  0  0  0  0  0
    8.2125    0.1458    0.0000 O   0  0  0  0  0  0  0  0  0  0  0  0
    9.7875    0.7708    0.0000 O   0  0  0  0  0  0  0  0  0  0  0  0
    6.8167   -5.0375    0.0000 O   0  0  0  0  0  0  0  0  0  0  0  0
    6.3708   -4.0750    0.0000 O   0  0  0  0  0  0  0  0  0  0  0  0
    6.2792    0.1583    0.0000 C   0  0  0  0  0  0  0  0  0  0  0  0
    7.2792    2.2083    0.0000 C   0  0  0  0  0  0  0  0  0  0  0  0
    8.2167   -2.6667    0.0000 C   0  0  0  0  0  0  0  0  0  0  0  0
    8.2083   -0.5417    0.0000 C   0  0  0  0  0  0  0  0  0  0  0  0
    7.4292   -5.3917    0.0000 C   0  0  0  0  0  0  0  0  0  0  0  0
   10.1417    0.1583    0.0000 C   0  0  0  0  0  0  0  0  0  0  0  0
    6.9875    1.5583    0.0000 C   0  0  0  0  0  0  0  0  0  0  0  0
    6.3750   -0.9083    0.0000 C   0  0  0  0  0  0  0  0  0  0  0  0
    7.0833   -2.8458    0.0000 C   0  0  0  0  0  0  0  0  0  0  0  0
   10.0292   -4.5375    0.0000 C   0  0  0  0  0  0  0  0  0  0  0  0
    8.9667   -3.9250    0.0000 C   0  0  0  0  0  0  0  0  0  0  0  0
    9.6750   -1.4708    0.0000 C   0  0  0  0  0  0  0  0  0  0  0  0
    9.4375    1.5667    0.0000 C   0  0  0  0  0  0  0  0  0  0  0  0
    6.2083   -4.6750    0.0000 C   0  0  0  0  0  0  0  0  0  0  0  0
    5.7625   -0.5542    0.0000 C   0  0  0  0  0  0  0  0  0  0  0  0
   11.7000   -3.0542    0.0000 H   0  0  0  0  0  0  0  0  0  0  0  0
   10.1417   -0.5500    0.0000 H   0  0  0  0  0  0  0  0  0  0  0  0
    9.1042   -4.4292    0.0000 H   0  0  0  0  0  0  0  0  0  0  0  0
  3 10  1  0
  4  6  1  0
  5 22  1  0
  6  3  1  0
  7  2  1  0
  8 13  1  0
  9 18  1  0
 10  8  1  0
 11 27  1  0
 12  4  1  0
 13  2  1  0
 14 19  1  0
 15  7  1  0
 16  8  1  0
 17 24  1  0
 18 11  1  0
 19 17  1  0
 20  2  1  0
 21 17  1  0
 22 12  1  0
 23 25  1  0
  3 24  1  6
 25 21  1  0
 26 31  1  0
 27 32  1  0
 15 28  1  1
 29 16  1  0
 30  4  2  0
 31 20  1  0
 32 29  1  0
  5 33  1  1
  7 34  1  6
  9 35  1  1
 16 36  1  1
 14 37  1  1
 23 38  1  1
 39  5  1  0
 40 11  1  0
  6 41  1  1
 10 42  1  6
 43 14  1  0
 44 16  1  0
 18 45  1  1
 22 46  1  6
 25 47  1  6
 48 28  1  0
 49 28  1  0
 31 50  1  1
 32 51  1  6
 52 37  1  0
 53 46  1  0
  2 54  1  6
  8 55  1  1
 17 56  1  6
 26 15  1  0
  5  9  1  0
 23 14  1  0
M  END

> <chembl_id>
CHEMBL1200502

> <chembl_pref_name>
AZITHROMYCIN MONOHYDRATE

$$$$

     RDKit          2D

 60 63  0  0  0  0  0  0  0  0999 V2000
    2.5349   -4.3640    0.0000 C   0  0  0  0  0  0  0  0  0  0  0  0
    1.1525   -4.3451    0.0000 C   0  0  0  0  0  0  0  0  0  0  0  0
   -0.2739   -4.3451    0.0000 C   0  0  0  0  0  0  0  0  0  0  0  0
   -0.9935   -2.1969    0.0000 C   0  0  0  0  0  0  0  0  0  0  0  0
    0.4434   -4.7542    0.0000 C   0  0  0  0  0  0  0  0  0  0  0  0
    3.2524   -4.7793    0.0000 C   0  0  0  0  0  0  0  0  0  0  0  0
    1.8573   -3.1095    0.0000 C   0  0  0  0  0  0  0  0  0  0  0  0
   -0.4628   -1.6642    0.0000 C   0  0  0  0  0  0  0  0  0  0  0  0
    1.1525   -3.5186    0.0000 C   0  0  0  0  0  0  0  0  0  0  0  0
   -0.0832   -0.3258    0.0000 N   0  0  0  0  0  0  0  0  0  0  0  0
   -0.2739   -3.5249    0.0000 O   0  0  0  0  0  0  0  0  0  0  0  0
    2.5580   -3.5416    0.0000 O   0  0  0  0  0  0  0  0  0  0  0  0
    0.6783   -7.2925    0.0000 C   0  0  0  0  0  0  0  0  0  0  0  0
    3.2461   -5.6017    0.0000 C   0  0  0  0  0  0  0  0  0  0  0  0
    1.8468   -2.2243    0.0000 C   0  0  0  0  0  0  0  0  0  0  0  0
    0.7161   -5.8618    0.0000 C   0  0  0  0  0  0  0  0  0  0  0  0
   -0.4964   -0.9173    0.0000 C   0  0  0  0  0  0  0  0  0  0  0  0
    1.1105   -6.5897    0.0000 C   0  0  0  0  0  0  0  0  0  0  0  0
    1.8153   -4.7771    0.0000 O   0  0  0  0  0  0  0  0  0  0  0  0
   -0.1146   -5.8366    0.0000 O   0  0  0  0  0  0  0  0  0  0  0  0
   -0.9872   -3.1117    0.0000 C   0  0  0  0  0  0  0  0  0  0  0  0
   -0.1418   -7.2694    0.0000 C   0  0  0  0  0  0  0  0  0  0  0  0
    1.1462   -5.1653    0.0000 O   0  0  0  0  0  0  0  0  0  0  0  0
   -0.5383   -6.5456    0.0000 C   0  0  0  0  0  0  0  0  0  0  0  0
    2.5329   -6.0150    0.0000 C   0  0  0  0  0  0  0  0  0  0  0  0
    0.8147   -0.3258    0.0000 C   0  0  0  0  0  0  0  0  0  0  0  0
    3.9550   -6.0150    0.0000 N   0  0  0  0  0  0  0  0  0  0  0  0
    1.1882   -1.6033    0.0000 C   0  0  0  0  0  0  0  0  0  0  0  0
   -0.9872   -4.7542    0.0000 O   0  0  0  0  0  0  0  0  0  0  0  0
    1.8216   -5.5996    0.0000 C   0  0  0  0  0  0  0  0  0  0  0  0
    1.1882   -0.8250    0.0000 C   0  0  0  0  0  0  0  0  0  0  0  0
    0.2400   -7.9868    0.0000 O   0  0  0  0  0  0  0  0  0  0  0  0
   -1.7068   -2.6018    0.0000 C   0  0  0  0  0  0  0  0  0  0  0  0
   -0.2761   -5.1590    0.0000 C   0  0  0  0  0  0  0  0  0  0  0  0
    0.4350   -3.1032    0.0000 C   0  0  0  0  0  0  0  0  0  0  0  0
    1.3917   -7.2925    0.0000 C   0  0  0  0  0  0  0  0  0  0  0  0
    2.6608   -2.4424    0.0000 C   0  0  0  0  0  0  0  0  0  0  0  0
   -1.2096   -0.7075    0.0000 C   0  0  0  0  0  0  0  0  0  0  0  0
   -1.6984   -3.5249    0.0000 C   0  0  0  0  0  0  0  0  0  0  0  0
   -1.3607   -6.5227    0.0000 C   0  0  0  0  0  0  0  0  0  0  0  0
    4.6684   -5.6079    0.0000 C   0  0  0  0  0  0  0  0  0  0  0  0
    3.9550   -6.8373    0.0000 C   0  0  0  0  0  0  0  0  0  0  0  0
    1.9580   -0.3090    0.0000 C   0  0  0  0  0  0  0  0  0  0  0  0
    0.6302   -8.7148    0.0000 C   0  0  0  0  0  0  0  0  0  0  0  0
   -2.4096   -3.1180    0.0000 C   0  0  0  0  0  0  0  0  0  0  0  0
    1.8489   -3.9319    0.0000 H   0  0  0  0  0  0  0  0  0  0  0  0
    0.2987   -5.1485    0.0000 H   0  0  0  0  0  0  0  0  0  0  0  0
    1.6046   -6.3850    0.0000 C   0  0  0  0  0  0  0  0  0  0  0  0
   -1.7068   -1.7837    0.0000 O   0  0  0  0  0  0  0  0  0  0  0  0
    3.9635   -4.3661    0.0000 O   0  0  0  0  0  0  0  0  0  0  0  0
    0.2400   -1.9348    0.0000 O   0  0  0  0  0  0  0  0  0  0  0  0
    2.6021   -1.7816    0.0000 O   0  0  0  0  0  0  0  0  0  0  0  0
   -0.5802   -7.9616    0.0000 O   0  0  0  0  0  0  0  0  0  0  0  0
   -0.4903    0.4553    0.0000 C   0  0  0  0  0  0  0  0  0  0  0  0
   -0.0174    1.1984    0.0000 C   0  0  0  0  0  0  0  0  0  0  0  0
    0.8611    1.1584    0.0000 C   0  0  0  0  0  0  0  0  0  0  0  0
    1.3337    1.9007    0.0000 C   0  0  0  0  0  0  0  0  0  0  0  0
    0.9266    2.6828    0.0000 C   0  0  0  0  0  0  0  0  0  0  0  0
    0.0420    2.7180    0.0000 C   0  0  0  0  0  0  0  0  0  0  0  0
   -0.4268    1.9751    0.0000 C   0  0  0  0  0  0  0  0  0  0  0  0
 13 18  1  0
 14  6  1  0
 15  7  1  0
 16 23  1  0
 17 10  1  0
 18 16  1  0
 19  1  1  0
 20 16  1  0
 21 11  1  0
 22 24  1  0
  2 23  1  6
 24 20  1  0
 25 30  1  0
 26 31  1  0
 14 27  1  1
 28 15  1  0
 29  3  2  0
 30 19  1  0
 31 28  1  0
 13 32  1  1
 33  4  1  0
  5 34  1  1
  9 35  1  6
 36 13  1  0
 37 15  1  0
 17 38  1  1
 21 39  1  6
 24 40  1  6
 41 27  1  0
 42 27  1  0
 31 43  1  6
 44 32  1  0
 45 39  1  0
  7 46  1  1
 16 47  1  6
 14 25  1  0
  8  4  1  0
 13 22  1  0
 30 48  1  1
  2  9  1  0
  3  5  1  0
  4 21  1  0
  5  2  1  0
  6  1  1  0
  4 49  1  1
  8 51  1  1
 15 52  1  1
  6 50  1  6
 22 53  1  1
 10 54  1  0
  7 12  1  0
 54 55  1  0
  8 17  1  0
 55 56  2  0
  9  7  1  0
 56 57  1  0
 10 26  1  0
 57 58  2  0
 11  3  1  0
 58 59  1  0
  1 12  1  1
 59 60  2  0
 60 55  1  0
M  END

> <chembl_id>
CHEMBL1774292

> <chembl_pref_name>
None

$$$$

     RDKit          2D

 78 82  0  0  0  0  0  0  0  0999 V2000
    3.7194  -26.6760    0.0000 O   0  0  0  0  0  0  0  0  0  0  0  0
    3.7180  -27.5010    0.0000 C   0  0  0  0  0  0  0  0  0  0  0  0
    3.0015  -27.9096    0.0000 C   0  0  0  0  0  0  0  0  0  0  0  0
    2.9982  -28.7310    0.0000 C   0  0  0  0  0  0  0  0  0  0  0  0
    3.7102  -29.1487    0.0000 C   0  0  0  0  0  0  0  0  0  0  0  0
    4.4271  -28.7386    0.0000 C   0  0  0  0  0  0  0  0  0  0  0  0
    4.4322  -27.9110    0.0000 O   0  0  0  0  0  0  0  0  0  0  0  0
    5.1395  -29.1547    0.0000 C   0  0  0  0  0  0  0  0  0  0  0  0
    2.2825  -28.3156    0.0000 O   0  0  0  0  0  0  0  0  0  0  0  0
    1.5670  -28.7265    0.0000 C   0  0  0  0  0  0  0  0  0  0  0  0
    2.9986  -29.5560    0.0000 C   0  0  0  0  0  0  0  0  0  0  0  0
    3.7057  -29.9736    0.0000 O   0  0  0  0  0  0  0  0  0  0  0  0
    4.4275  -27.0827    0.0000 H   0  0  0  0  0  0  0  0  0  0  0  0
   16.0851  -29.4376    0.0000 C   0  0  0  0  0  0  0  0  0  0  0  0
   16.4175  -30.1927    0.0000 N   0  0  0  0  0  0  0  0  0  0  0  0
   16.5728  -28.7723    0.0000 O   0  0  0  0  0  0  0  0  0  0  0  0
   17.2376  -30.2824    0.0000 O   0  0  0  0  0  0  0  0  0  0  0  0
    1.5721  -26.2623    0.0000 C   0  0  0  0  0  0  0  0  0  0  0  0
    2.2866  -26.6748    0.0000 C   0  0  0  0  0  0  0  0  0  0  0  0
    3.0056  -26.2623    0.0000 C   0  0  0  0  0  0  0  0  0  0  0  0
    1.5721  -25.4327    0.0000 O   0  0  0  0  0  0  0  0  0  0  0  0
    0.8514  -24.1982    0.0000 C   0  0  0  0  0  0  0  0  0  0  0  0
    0.8537  -25.0271    0.0000 C   0  0  0  0  0  0  0  0  0  0  0  0
    3.0062  -25.4318    0.0000 C   0  0  0  0  0  0  0  0  0  0  0  0
    3.7224  -25.0190    0.0000 C   0  0  0  0  0  0  0  0  0  0  0  0
    3.7252  -24.1884    0.0000 C   0  0  0  0  0  0  0  0  0  0  0  0
    3.0064  -23.7707    0.0000 C   0  0  0  0  0  0  0  0  0  0  0  0
    3.0077  -22.9410    0.0000 C   0  0  0  0  0  0  0  0  0  0  0  0
    1.5643  -22.9370    0.0000 C   0  0  0  0  0  0  0  0  0  0  0  0
    1.5613  -23.7730    0.0000 C   0  0  0  0  0  0  0  0  0  0  0  0
    1.9709  -22.2198    0.0000 N   0  0  0  0  0  0  0  0  0  0  0  0
    2.7958  -22.2198    0.0000 C   0  0  0  0  0  0  0  0  0  0  0  0
    3.8243  -22.8242    0.0000 C   0  0  0  0  0  0  0  0  0  0  0  0
    1.5555  -21.5070    0.0000 C   0  0  0  0  0  0  0  0  0  0  0  0
    0.7669  -22.7252    0.0000 C   0  0  0  0  0  0  0  0  0  0  0  0
    2.2783  -24.1811    0.0000 O   0  0  0  0  0  0  0  0  0  0  0  0
    0.2612  -23.6086    0.0000 O   0  0  0  0  0  0  0  0  0  0  0  0
    0.1329  -24.6032    0.0000 C   0  0  0  0  0  0  0  0  0  0  0  0
    0.1418  -25.4440    0.0000 C   0  0  0  0  0  0  0  0  0  0  0  0
    0.1468  -26.2690    0.0000 C   0  0  0  0  0  0  0  0  0  0  0  0
    0.8576  -26.6748    0.0000 O   0  0  0  0  0  0  0  0  0  0  0  0
    2.2919  -25.0188    0.0000 C   0  0  0  0  0  0  0  0  0  0  0  0
    4.4359  -25.4330    0.0000 O   0  0  0  0  0  0  0  0  0  0  0  0
    3.7171  -23.3611    0.0000 O   0  0  0  0  0  0  0  0  0  0  0  0
    4.5466  -24.1861    0.0000 C   0  0  0  0  0  0  0  0  0  0  0  0
    5.1513  -25.0221    0.0000 C   0  0  0  0  0  0  0  0  0  0  0  0
    5.8610  -25.4409    0.0000 O   0  0  0  0  0  0  0  0  0  0  0  0
    6.5742  -25.0335    0.0000 C   0  0  0  0  0  0  0  0  0  0  0  0
    6.5803  -24.2082    0.0000 C   0  0  0  0  0  0  0  0  0  0  0  0
    5.8668  -23.7919    0.0000 C   0  0  0  0  0  0  0  0  0  0  0  0
    5.1474  -24.2010    0.0000 C   0  0  0  0  0  0  0  0  0  0  0  0
    5.1425  -23.3748    0.0000 O   0  0  0  0  0  0  0  0  0  0  0  0
    5.8713  -22.9669    0.0000 N   0  0  0  0  0  0  0  0  0  0  0  0
    7.2862  -25.4502    0.0000 C   0  0  0  0  0  0  0  0  0  0  0  0
    6.5881  -22.5584    0.0000 C   0  0  0  0  0  0  0  0  0  0  0  0
    5.1592  -22.5505    0.0000 C   0  0  0  0  0  0  0  0  0  0  0  0
    7.3003  -22.9749    0.0000 C   0  0  0  0  0  0  0  0  0  0  0  0
    7.2938  -23.7979    0.0000 C   0  0  0  0  0  0  0  0  0  0  0  0
    8.0051  -24.2142    0.0000 C   0  0  0  0  0  0  0  0  0  0  0  0
    8.7228  -23.8056    0.0000 C   0  0  0  0  0  0  0  0  0  0  0  0
    8.7248  -22.9764    0.0000 C   0  0  0  0  0  0  0  0  0  0  0  0
    8.0128  -22.5637    0.0000 C   0  0  0  0  0  0  0  0  0  0  0  0
    5.1425  -25.8452    0.0000 H   0  0  0  0  0  0  0  0  0  0  0  0
    9.4336  -24.2182    0.0000 C   0  0  0  0  0  0  0  0  0  0  0  0
    9.5165  -25.0390    0.0000 C   0  0  0  0  0  0  0  0  0  0  0  0
   10.3226  -25.2139    0.0000 N   0  0  0  0  0  0  0  0  0  0  0  0
   10.7382  -24.5011    0.0000 N   0  0  0  0  0  0  0  0  0  0  0  0
   10.1887  -23.8858    0.0000 N   0  0  0  0  0  0  0  0  0  0  0  0
   10.6551  -25.9689    0.0000 C   0  0  0  0  0  0  0  0  0  0  0  0
   11.4751  -26.0586    0.0000 C   0  0  0  0  0  0  0  0  0  0  0  0
   11.8075  -26.8137    0.0000 C   0  0  0  0  0  0  0  0  0  0  0  0
   12.6277  -26.9034    0.0000 C   0  0  0  0  0  0  0  0  0  0  0  0
   12.9600  -27.6584    0.0000 C   0  0  0  0  0  0  0  0  0  0  0  0
    2.2844  -27.4907    0.0000 C   0  0  0  0  0  0  0  0  0  0  0  0
   13.7801  -27.7482    0.0000 C   0  0  0  0  0  0  0  0  0  0  0  0
   14.1126  -28.5032    0.0000 C   0  0  0  0  0  0  0  0  0  0  0  0
   14.9326  -28.5928    0.0000 C   0  0  0  0  0  0  0  0  0  0  0  0
   15.2650  -29.3480    0.0000 C   0  0  0  0  0  0  0  0  0  0  0  0
 19 20  1  0
 39 40  1  0
 20 24  1  0
 18 41  2  0
 19 74  1  1
 20  1  1  6
  9 10  1  0
 24 42  1  6
  2  7  1  0
 25 43  1  6
  4 11  1  1
 26 44  1  1
 21 23  1  0
 26 45  1  0
 30 22  1  0
 43 46  1  0
 46 47  1  0
 22 23  1  0
  3  4  1  0
  5 12  1  6
  4  5  1  0
 24 25  1  0
 46 51  1  0
 47 48  1  0
 48 49  1  0
 49 50  1  0
 50 51  1  0
 25 26  1  0
 51 52  1  6
 26 27  1  0
 50 53  1  1
  2 13  1  1
 48 54  1  1
  5  6  1  0
 53 55  1  0
  6  7  1  0
 53 56  1  0
 14 15  1  0
 55 57  1  0
 27 28  1  0
 57 58  2  0
 29 30  1  0
 58 59  1  0
  2  3  1  0
 59 60  2  0
 29 31  1  0
 60 61  1  0
 14 16  2  0
 61 62  2  0
 62 57  1  0
 31 32  1  0
 46 63  1  6
 64 65  2  0
 32 28  1  0
  6  8  1  1
 28 33  1  6
 15 17  1  0
 31 34  1  0
 65 66  1  0
 66 67  1  0
 67 68  2  0
 68 64  1  0
 60 64  1  0
 21 18  1  0
 66 69  1  0
 29 35  1  1
 69 70  1  0
 70 71  1  0
 30 36  1  1
 71 72  1  0
  4  9  1  0
 72 73  1  0
 22 37  1  1
  1  2  1  0
 73 75  1  0
 22 38  1  0
 75 76  1  0
 18 19  1  0
 76 77  1  0
 23 39  1  6
 77 78  1  0
 78 14  1  0
M  END

> <chembl_id>
CHEMBL496761

> <chembl_pref_name>
None

$$$$

     RDKit          2D

 63 66  0  0  0  0  0  0  0  0999 V2000
    2.5349   -4.3640    0.0000 C   0  0  0  0  0  0  0  0  0  0  0  0
    1.1525   -4.3451    0.0000 C   0  0  0  0  0  0  0  0  0  0  0  0
   -0.2739   -4.3451    0.0000 C   0  0  0  0  0  0  0  0  0  0  0  0
   -0.9935   -2.1969    0.0000 C   0  0  0  0  0  0  0  0  0  0  0  0
    0.4434   -4.7542    0.0000 C   0  0  0  0  0  0  0  0  0  0  0  0
    3.2524   -4.7793    0.0000 C   0  0  0  0  0  0  0  0  0  0  0  0
    1.8573   -3.1095    0.0000 C   0  0  0  0  0  0  0  0  0  0  0  0
   -0.4628   -1.6642    0.0000 C   0  0  0  0  0  0  0  0  0  0  0  0
    1.1525   -3.5186    0.0000 C   0  0  0  0  0  0  0  0  0  0  0  0
   -0.0832   -0.3258    0.0000 N   0  0  0  0  0  0  0  0  0  0  0  0
   -0.2739   -3.5249    0.0000 O   0  0  0  0  0  0  0  0  0  0  0  0
    2.5580   -3.5416    0.0000 O   0  0  0  0  0  0  0  0  0  0  0  0
    0.6783   -7.2925    0.0000 C   0  0  0  0  0  0  0  0  0  0  0  0
    3.2461   -5.6017    0.0000 C   0  0  0  0  0  0  0  0  0  0  0  0
    1.8468   -2.2243    0.0000 C   0  0  0  0  0  0  0  0  0  0  0  0
    0.7161   -5.8618    0.0000 C   0  0  0  0  0  0  0  0  0  0  0  0
   -0.4964   -0.9173    0.0000 C   0  0  0  0  0  0  0  0  0  0  0  0
    1.1105   -6.5897    0.0000 C   0  0  0  0  0  0  0  0  0  0  0  0
    1.8153   -4.7771    0.0000 O   0  0  0  0  0  0  0  0  0  0  0  0
   -0.1146   -5.8366    0.0000 O   0  0  0  0  0  0  0  0  0  0  0  0
   -0.9872   -3.1117    0.0000 C   0  0  0  0  0  0  0  0  0  0  0  0
   -0.1418   -7.2694    0.0000 C   0  0  0  0  0  0  0  0  0  0  0  0
    1.1462   -5.1653    0.0000 O   0  0  0  0  0  0  0  0  0  0  0  0
   -0.5383   -6.5456    0.0000 C   0  0  0  0  0  0  0  0  0  0  0  0
    2.5329   -6.0150    0.0000 C   0  0  0  0  0  0  0  0  0  0  0  0
    0.8147   -0.3258    0.0000 C   0  0  0  0  0  0  0  0  0  0  0  0
    3.9550   -6.0150    0.0000 N   0  0  0  0  0  0  0  0  0  0  0  0
    1.1882   -1.6033    0.0000 C   0  0  0  0  0  0  0  0  0  0  0  0
   -0.9872   -4.7542    0.0000 O   0  0  0  0  0  0  0  0  0  0  0  0
    1.8216   -5.5996    0.0000 C   0  0  0  0  0  0  0  0  0  0  0  0
    1.1882   -0.8250    0.0000 C   0  0  0  0  0  0  0  0  0  0  0  0
    0.2400   -7.9868    0.0000 O   0  0  0  0  0  0  0  0  0  0  0  0
   -1.7068   -2.6018    0.0000 C   0  0  0  0  0  0  0  0  0  0  0  0
   -0.2761   -5.1590    0.0000 C   0  0  0  0  0  0  0  0  0  0  0  0
    0.4350   -3.1032    0.0000 C   0  0  0  0  0  0  0  0  0  0  0  0
    1.3917   -7.2925    0.0000 C   0  0  0  0  0  0  0  0  0  0  0  0
    2.6608   -2.4424    0.0000 C   0  0  0  0  0  0  0  0  0  0  0  0
   -1.2096   -0.7075    0.0000 C   0  0  0  0  0  0  0  0  0  0  0  0
   -1.6984   -3.5249    0.0000 C   0  0  0  0  0  0  0  0  0  0  0  0
   -1.3607   -6.5227    0.0000 C   0  0  0  0  0  0  0  0  0  0  0  0
    4.6684   -5.6079    0.0000 C   0  0  0  0  0  0  0  0  0  0  0  0
    3.9550   -6.8373    0.0000 C   0  0  0  0  0  0  0  0  0  0  0  0
    1.9580   -0.3090    0.0000 C   0  0  0  0  0  0  0  0  0  0  0  0
    0.6302   -8.7148    0.0000 C   0  0  0  0  0  0  0  0  0  0  0  0
   -2.4096   -3.1180    0.0000 C   0  0  0  0  0  0  0  0  0  0  0  0
    1.8489   -3.9319    0.0000 H   0  0  0  0  0  0  0  0  0  0  0  0
    0.2987   -5.1485    0.0000 H   0  0  0  0  0  0  0  0  0  0  0  0
    1.6046   -6.3850    0.0000 C   0  0  0  0  0  0  0  0  0  0  0  0
   -1.7068   -1.7837    0.0000 O   0  0  0  0  0  0  0  0  0  0  0  0
    3.9635   -4.3661    0.0000 O   0  0  0  0  0  0  0  0  0  0  0  0
    0.2400   -1.9348    0.0000 O   0  0  0  0  0  0  0  0  0  0  0  0
    2.6021   -1.7816    0.0000 O   0  0  0  0  0  0  0  0  0  0  0  0
   -0.5802   -7.9616    0.0000 O   0  0  0  0  0  0  0  0  0  0  0  0
   -0.4903    0.4553    0.0000 C   0  0  0  0  0  0  0  0  0  0  0  0
   -0.0174    1.1984    0.0000 N   0  0  0  0  0  0  0  0  0  0  0  0
   -1.3702    0.4932    0.0000 O   0  0  0  0  0  0  0  0  0  0  0  0
    0.8625    1.1604    0.0000 C   0  0  0  0  0  0  0  0  0  0  0  0
    1.3353    1.9036    0.0000 C   0  0  0  0  0  0  0  0  0  0  0  0
    2.2126    1.8611    0.0000 C   0  0  0  0  0  0  0  0  0  0  0  0
    2.6853    2.6033    0.0000 C   0  0  0  0  0  0  0  0  0  0  0  0
    2.2781    3.3854    0.0000 C   0  0  0  0  0  0  0  0  0  0  0  0
    1.3935    3.4207    0.0000 C   0  0  0  0  0  0  0  0  0  0  0  0
    0.9247    2.6776    0.0000 C   0  0  0  0  0  0  0  0  0  0  0  0
 16 23  1  0
 17 10  1  0
 18 16  1  0
 19  1  1  0
 20 16  1  0
 21 11  1  0
 22 24  1  0
  2 23  1  6
 24 20  1  0
 25 30  1  0
 26 31  1  0
 14 27  1  1
 28 15  1  0
 29  3  2  0
 30 19  1  0
 31 28  1  0
 13 32  1  1
 33  4  1  0
  5 34  1  1
  9 35  1  6
 36 13  1  0
 37 15  1  0
 17 38  1  1
 21 39  1  6
 24 40  1  6
 41 27  1  0
 42 27  1  0
 31 43  1  6
 44 32  1  0
 45 39  1  0
  7 46  1  1
 16 47  1  6
 14 25  1  0
  8  4  1  0
 13 22  1  0
 30 48  1  1
  2  9  1  0
  3  5  1  0
  4 21  1  0
  5  2  1  0
  6  1  1  0
  4 49  1  1
  8 51  1  1
 15 52  1  1
  6 50  1  6
 22 53  1  1
 10 54  1  0
  7 12  1  0
 54 55  1  0
  8 17  1  0
 54 56  2  0
  9  7  1  0
 55 57  1  0
 10 26  1  0
 57 58  1  0
 11  3  1  0
 58 59  2  0
  1 12  1  1
 59 60  1  0
 13 18  1  0
 60 61  2  0
 14  6  1  0
 61 62  1  0
 15  7  1  0
 62 63  2  0
 63 58  1  0
M  END

> <chembl_id>
CHEMBL1774294

> <chembl_pref_name>
None

$$$$

     RDKit          2D

 62 65  0  0  0  0  0  0  0  0999 V2000
   13.5063   -5.3225    0.0000 C   0  0  0  0  0  0  0  0  0  0  0  0
   11.3605   -6.5321    0.0000 C   0  0  0  0  0  0  0  0  0  0  0  0
    9.9232   -6.5321    0.0000 C   0  0  0  0  0  0  0  0  0  0  0  0
    9.2148   -4.4816    0.0000 C   0  0  0  0  0  0  0  0  0  0  0  0
   10.6439   -6.9465    0.0000 C   0  0  0  0  0  0  0  0  0  0  0  0
   13.5353   -4.4983    0.0000 C   0  0  0  0  0  0  0  0  0  0  0  0
   12.0689   -5.3060    0.0000 C   0  0  0  0  0  0  0  0  0  0  0  0
   11.3481   -5.7077    0.0000 C   0  0  0  0  0  0  0  0  0  0  0  0
    9.5694   -3.2389    0.0000 C   0  0  0  0  0  0  0  0  0  0  0  0
    9.9232   -5.7077    0.0000 O   0  0  0  0  0  0  0  0  0  0  0  0
    9.8816   -3.9591    0.0000 C   0  0  0  0  0  0  0  0  0  0  0  0
   12.7814   -5.7077    0.0000 O   0  0  0  0  0  0  0  0  0  0  0  0
   12.8352   -8.9927    0.0000 C   0  0  0  0  0  0  0  0  0  0  0  0
   14.2602   -4.1088    0.0000 C   0  0  0  0  0  0  0  0  0  0  0  0
   12.0689   -4.4816    0.0000 C   0  0  0  0  0  0  0  0  0  0  0  0
   12.0855   -7.7706    0.0000 C   0  0  0  0  0  0  0  0  0  0  0  0
   12.8104   -8.1684    0.0000 C   0  0  0  0  0  0  0  0  0  0  0  0
   14.2105   -5.7658    0.0000 O   0  0  0  0  0  0  0  0  0  0  0  0
   11.3729   -8.2016    0.0000 O   0  0  0  0  0  0  0  0  0  0  0  0
    9.2148   -5.3060    0.0000 C   0  0  0  0  0  0  0  0  0  0  0  0
   12.1310   -9.4194    0.0000 C   0  0  0  0  0  0  0  0  0  0  0  0
   12.0606   -6.9465    0.0000 O   0  0  0  0  0  0  0  0  0  0  0  0
   11.4061   -9.0258    0.0000 C   0  0  0  0  0  0  0  0  0  0  0  0
   11.5022   -3.0848    0.0000 C   0  0  0  0  0  0  0  0  0  0  0  0
   11.3481   -3.7426    0.0000 C   0  0  0  0  0  0  0  0  0  0  0  0
   14.9603   -4.5479    0.0000 C   0  0  0  0  0  0  0  0  0  0  0  0
   14.2934   -3.2844    0.0000 N   0  0  0  0  0  0  0  0  0  0  0  0
    9.2231   -6.9465    0.0000 O   0  0  0  0  0  0  0  0  0  0  0  0
   14.9354   -5.3722    0.0000 C   0  0  0  0  0  0  0  0  0  0  0  0
    8.7011   -3.8355    0.0000 O   0  0  0  0  0  0  0  0  0  0  0  0
   12.8352   -4.0591    0.0000 O   0  0  0  0  0  0  0  0  0  0  0  0
   12.2843   -3.7981    0.0000 O   0  0  0  0  0  0  0  0  0  0  0  0
   10.6355   -4.4816    0.0000 O   0  0  0  0  0  0  0  0  0  0  0  0
   12.8476   -9.8171    0.0000 O   0  0  0  0  0  0  0  0  0  0  0  0
   12.1476  -10.2437    0.0000 O   0  0  0  0  0  0  0  0  0  0  0  0
    8.4898   -4.8835    0.0000 C   0  0  0  0  0  0  0  0  0  0  0  0
   10.6480   -7.7706    0.0000 C   0  0  0  0  0  0  0  0  0  0  0  0
   10.6355   -5.2977    0.0000 C   0  0  0  0  0  0  0  0  0  0  0  0
    8.7569   -2.8995    0.0000 C   0  0  0  0  0  0  0  0  0  0  0  0
   13.5353   -8.5660    0.0000 C   0  0  0  0  0  0  0  0  0  0  0  0
   12.7814   -4.8917    0.0000 C   0  0  0  0  0  0  0  0  0  0  0  0
    8.5023   -5.7161    0.0000 C   0  0  0  0  0  0  0  0  0  0  0  0
   10.6977   -9.4650    0.0000 C   0  0  0  0  0  0  0  0  0  0  0  0
   12.2771   -2.7454    0.0000 C   0  0  0  0  0  0  0  0  0  0  0  0
   13.5933   -2.8495    0.0000 C   0  0  0  0  0  0  0  0  0  0  0  0
   15.0223   -2.8992    0.0000 C   0  0  0  0  0  0  0  0  0  0  0  0
   15.6313   -5.8113    0.0000 C   0  0  0  0  0  0  0  0  0  0  0  0
   13.5726  -10.2148    0.0000 C   0  0  0  0  0  0  0  0  0  0  0  0
    8.5023   -6.5321    0.0000 C   0  0  0  0  0  0  0  0  0  0  0  0
   12.7979   -7.3523    0.0000 H   0  0  0  0  0  0  0  0  0  0  0  0
   13.4980   -6.1469    0.0000 H   0  0  0  0  0  0  0  0  0  0  0  0
   10.0054   -2.3728    0.0000 N   0  0  0  0  0  0  0  0  0  0  0  0
   11.0961   -2.3728    0.0000 C   0  0  0  0  0  0  0  0  0  0  0  0
    9.5424   -1.6214    0.0000 C   0  0  0  0  0  0  0  0  0  0  0  0
    9.9616   -0.8448    0.0000 C   0  0  0  0  0  0  0  0  0  0  0  0
    9.4987   -0.0934    0.0000 C   0  0  0  0  0  0  0  0  0  0  0  0
    9.9180    0.6832    0.0000 C   0  0  0  0  0  0  0  0  0  0  0  0
   10.7975    0.7038    0.0000 C   0  0  0  0  0  0  0  0  0  0  0  0
   11.2167    1.4795    0.0000 C   0  0  0  0  0  0  0  0  0  0  0  0
   10.7536    2.2320    0.0000 C   0  0  0  0  0  0  0  0  0  0  0  0
    9.8669    2.2038    0.0000 C   0  0  0  0  0  0  0  0  0  0  0  0
    9.4518    1.4275    0.0000 C   0  0  0  0  0  0  0  0  0  0  0  0
 20 10  1  0
 21 23  1  0
  2 22  1  6
 23 19  1  0
 24 25  1  0
 25 15  1  0
 26 29  1  0
 14 27  1  1
 28  3  2  0
 29 18  1  0
  4 30  1  1
  6 31  1  6
 15 32  1  1
 11 33  1  1
 13 34  1  1
 21 35  1  1
 36  4  1  0
  5 37  1  1
  8 38  1  6
  9 39  1  1
 40 13  1  0
 41 15  1  0
 20 42  1  6
 23 43  1  6
 24 44  1  6
 45 27  1  0
 46 27  1  0
 29 47  1  1
 48 34  1  0
 49 42  1  0
 16 50  1  6
  1 51  1  6
 26 14  1  0
  4 20  1  0
 21 13  1  0
  9 52  1  0
  2  8  1  0
 52 53  1  0
 53 24  1  0
  3  5  1  0
  4 11  1  0
  5  2  1  0
  6  1  1  0
  7 12  1  6
  8  7  1  0
 10  3  1  0
 11  9  1  0
 52 54  1  0
 12  1  1  0
 54 55  1  0
 13 17  1  0
 55 56  1  0
 14  6  1  0
 56 57  1  0
 15  7  1  0
 57 58  2  0
 16 22  1  0
 58 59  1  0
 17 16  1  0
 59 60  2  0
 18  1  1  0
 60 61  1  0
 19 16  1  0
 61 62  2  0
 62 57  1  0
M  END

> <chembl_id>
CHEMBL1773086

> <chembl_pref_name>
None

$$$$

     RDKit          2D

 74 78  0  0  0  0  0  0  0  0999 V2000
   -1.5583   -0.6966    0.0000 C   0  0  0  0  0  0  0  0  0  0  0  0
   -0.8438   -1.1091    0.0000 C   0  0  0  0  0  0  0  0  0  0  0  0
   -0.1248   -0.6966    0.0000 C   0  0  0  0  0  0  0  0  0  0  0  0
   -1.5583    0.1329    0.0000 O   0  0  0  0  0  0  0  0  0  0  0  0
   -2.2790    1.3675    0.0000 C   0  0  0  0  0  0  0  0  0  0  0  0
   -2.2767    0.5385    0.0000 C   0  0  0  0  0  0  0  0  0  0  0  0
   -0.1243    0.1339    0.0000 C   0  0  0  0  0  0  0  0  0  0  0  0
    0.5919    0.5466    0.0000 C   0  0  0  0  0  0  0  0  0  0  0  0
    0.5949    1.3773    0.0000 C   0  0  0  0  0  0  0  0  0  0  0  0
   -0.1241    1.7949    0.0000 C   0  0  0  0  0  0  0  0  0  0  0  0
   -0.1228    2.6246    0.0000 C   0  0  0  0  0  0  0  0  0  0  0  0
   -1.5660    2.6286    0.0000 C   0  0  0  0  0  0  0  0  0  0  0  0
   -1.5691    1.7926    0.0000 C   0  0  0  0  0  0  0  0  0  0  0  0
   -1.1596    3.3458    0.0000 N   0  0  0  0  0  0  0  0  0  0  0  0
   -0.3346    3.3458    0.0000 C   0  0  0  0  0  0  0  0  0  0  0  0
    0.6940    2.7415    0.0000 C   0  0  0  0  0  0  0  0  0  0  0  0
   -1.5748    4.0586    0.0000 C   0  0  0  0  0  0  0  0  0  0  0  0
   -2.3634    2.8403    0.0000 C   0  0  0  0  0  0  0  0  0  0  0  0
   -0.8520    1.3845    0.0000 O   0  0  0  0  0  0  0  0  0  0  0  0
   -2.8691    1.9571    0.0000 O   0  0  0  0  0  0  0  0  0  0  0  0
   -2.9974    0.9625    0.0000 C   0  0  0  0  0  0  0  0  0  0  0  0
   -2.9886    0.1217    0.0000 C   0  0  0  0  0  0  0  0  0  0  0  0
   -2.9835   -0.7033    0.0000 C   0  0  0  0  0  0  0  0  0  0  0  0
   -2.2728   -1.1091    0.0000 O   0  0  0  0  0  0  0  0  0  0  0  0
    0.5889   -1.1103    0.0000 O   0  0  0  0  0  0  0  0  0  0  0  0
   -0.8384    0.5468    0.0000 C   0  0  0  0  0  0  0  0  0  0  0  0
    1.3056    0.1327    0.0000 O   0  0  0  0  0  0  0  0  0  0  0  0
    0.5866    2.2046    0.0000 O   0  0  0  0  0  0  0  0  0  0  0  0
    1.4162    1.3796    0.0000 C   0  0  0  0  0  0  0  0  0  0  0  0
    2.0209    0.5436    0.0000 C   0  0  0  0  0  0  0  0  0  0  0  0
    2.7306    0.1246    0.0000 O   0  0  0  0  0  0  0  0  0  0  0  0
    3.4438    0.5322    0.0000 C   0  0  0  0  0  0  0  0  0  0  0  0
    3.4497    1.3575    0.0000 C   0  0  0  0  0  0  0  0  0  0  0  0
    2.7364    1.7736    0.0000 C   0  0  0  0  0  0  0  0  0  0  0  0
    2.0169    1.3645    0.0000 C   0  0  0  0  0  0  0  0  0  0  0  0
    2.0121    2.1908    0.0000 O   0  0  0  0  0  0  0  0  0  0  0  0
    2.7409    2.5986    0.0000 N   0  0  0  0  0  0  0  0  0  0  0  0
    4.1558    0.1154    0.0000 C   0  0  0  0  0  0  0  0  0  0  0  0
    3.4576    3.0071    0.0000 C   0  0  0  0  0  0  0  0  0  0  0  0
    2.0288    3.0150    0.0000 C   0  0  0  0  0  0  0  0  0  0  0  0
    4.1698    2.5908    0.0000 C   0  0  0  0  0  0  0  0  0  0  0  0
    4.1633    1.7678    0.0000 C   0  0  0  0  0  0  0  0  0  0  0  0
    4.8746    1.3514    0.0000 C   0  0  0  0  0  0  0  0  0  0  0  0
    5.5924    1.7600    0.0000 C   0  0  0  0  0  0  0  0  0  0  0  0
    5.5942    2.5892    0.0000 C   0  0  0  0  0  0  0  0  0  0  0  0
    4.8823    3.0018    0.0000 C   0  0  0  0  0  0  0  0  0  0  0  0
    2.0121   -0.2796    0.0000 H   0  0  0  0  0  0  0  0  0  0  0  0
    6.3031    1.3475    0.0000 C   0  0  0  0  0  0  0  0  0  0  0  0
    6.3859    0.5267    0.0000 C   0  0  0  0  0  0  0  0  0  0  0  0
    7.1922    0.3518    0.0000 N   0  0  0  0  0  0  0  0  0  0  0  0
    7.6076    1.0646    0.0000 N   0  0  0  0  0  0  0  0  0  0  0  0
    7.0582    1.6798    0.0000 N   0  0  0  0  0  0  0  0  0  0  0  0
    7.5245   -0.4032    0.0000 C   0  0  0  0  0  0  0  0  0  0  0  0
    8.3446   -0.4930    0.0000 C   0  0  0  0  0  0  0  0  0  0  0  0
    8.6770   -1.2480    0.0000 C   0  0  0  0  0  0  0  0  0  0  0  0
    9.4970   -1.3377    0.0000 C   0  0  0  0  0  0  0  0  0  0  0  0
    9.8295   -2.0928    0.0000 C   0  0  0  0  0  0  0  0  0  0  0  0
   10.6496   -2.1825    0.0000 C   0  0  0  0  0  0  0  0  0  0  0  0
   10.9819   -2.9375    0.0000 N   0  0  0  0  0  0  0  0  0  0  0  0
   11.1372   -1.5171    0.0000 O   0  0  0  0  0  0  0  0  0  0  0  0
   11.8020   -3.0272    0.0000 O   0  0  0  0  0  0  0  0  0  0  0  0
    0.5875   -1.9353    0.0000 C   0  0  0  0  0  0  0  0  0  0  0  0
   -0.1288   -2.3440    0.0000 C   0  0  0  0  0  0  0  0  0  0  0  0
   -0.1322   -3.1654    0.0000 C   0  0  0  0  0  0  0  0  0  0  0  0
    0.5797   -3.5829    0.0000 C   0  0  0  0  0  0  0  0  0  0  0  0
    1.2966   -3.1729    0.0000 C   0  0  0  0  0  0  0  0  0  0  0  0
    1.3017   -2.3452    0.0000 O   0  0  0  0  0  0  0  0  0  0  0  0
    2.0090   -3.5890    0.0000 C   0  0  0  0  0  0  0  0  0  0  0  0
   -0.8479   -2.7499    0.0000 O   0  0  0  0  0  0  0  0  0  0  0  0
   -0.8460   -1.9249    0.0000 C   0  0  0  0  0  0  0  0  0  0  0  0
   -1.5633   -3.1608    0.0000 C   0  0  0  0  0  0  0  0  0  0  0  0
   -0.1318   -3.9904    0.0000 C   0  0  0  0  0  0  0  0  0  0  0  0
    0.5752   -4.4079    0.0000 O   0  0  0  0  0  0  0  0  0  0  0  0
    1.2971   -1.5171    0.0000 H   0  0  0  0  0  0  0  0  0  0  0  0
 35 36  1  6
 12 18  1  1
 34 37  1  1
  8  9  1  0
 32 38  1  1
 13 19  1  1
 37 39  1  0
  9 10  1  0
 37 40  1  0
  5 20  1  1
 39 41  1  0
 41 42  2  0
  5 21  1  0
 42 43  1  0
  1  2  1  0
 43 44  2  0
  6 22  1  6
 44 45  1  0
  4  6  1  0
 45 46  2  0
 46 41  1  0
 22 23  1  0
 30 47  1  6
 48 49  2  0
 13  5  1  0
  1 24  2  0
  2 70  1  1
 10 11  1  0
  3 25  1  6
 49 50  1  0
 50 51  1  0
 51 52  2  0
 52 48  1  0
 44 48  1  0
 12 13  1  0
 50 53  1  0
  7 26  1  6
 53 54  1  0
  5  6  1  0
 54 55  1  0
  8 27  1  6
 55 56  1  0
 12 14  1  0
 56 57  1  0
  9 28  1  1
 57 58  1  0
  2  3  1  0
 58 59  1  0
  9 29  1  0
 58 60  2  0
 14 15  1  0
 59 61  1  0
 27 30  1  0
 25 62  1  0
 62 63  1  0
 30 31  1  0
 15 11  1  0
  3  7  1  0
 11 16  1  6
  4  1  1  0
 62 67  1  0
 63 64  1  0
 64 65  1  0
 65 66  1  0
 66 67  1  0
 14 17  1  0
 66 68  1  1
 30 35  1  0
 64 69  1  0
 31 32  1  0
 32 33  1  0
 69 71  1  0
 33 34  1  0
 64 72  1  1
 34 35  1  0
 65 73  1  6
  7  8  1  0
 62 74  1  1
M  END

> <chembl_id>
CHEMBL446811

> <chembl_pref_name>
None

$$$$

     RDKit          2D

 76 80  0  0  0  0  0  0  0  0999 V2000
    9.3388   -3.6766    0.0000 C   0  0  0  0  0  0  0  0  0  0  0  0
    9.6712   -4.4317    0.0000 N   0  0  0  0  0  0  0  0  0  0  0  0
    9.8265   -3.0112    0.0000 O   0  0  0  0  0  0  0  0  0  0  0  0
   10.4913   -4.5214    0.0000 O   0  0  0  0  0  0  0  0  0  0  0  0
   -4.0195   -1.3429    0.0000 C   0  0  0  0  0  0  0  0  0  0  0  0
   -3.3050   -1.7553    0.0000 C   0  0  0  0  0  0  0  0  0  0  0  0
   -2.5860   -1.3429    0.0000 C   0  0  0  0  0  0  0  0  0  0  0  0
   -4.0195   -0.5134    0.0000 O   0  0  0  0  0  0  0  0  0  0  0  0
   -4.7402    0.7213    0.0000 C   0  0  0  0  0  0  0  0  0  0  0  0
   -4.7379   -0.1077    0.0000 C   0  0  0  0  0  0  0  0  0  0  0  0
   -2.5855   -0.5124    0.0000 C   0  0  0  0  0  0  0  0  0  0  0  0
   -1.8693   -0.0997    0.0000 C   0  0  0  0  0  0  0  0  0  0  0  0
   -1.8663    0.7310    0.0000 C   0  0  0  0  0  0  0  0  0  0  0  0
   -2.5853    1.1487    0.0000 C   0  0  0  0  0  0  0  0  0  0  0  0
   -2.5840    1.9784    0.0000 C   0  0  0  0  0  0  0  0  0  0  0  0
   -4.0272    1.9824    0.0000 C   0  0  0  0  0  0  0  0  0  0  0  0
   -4.0303    1.1464    0.0000 C   0  0  0  0  0  0  0  0  0  0  0  0
   -3.6208    2.6996    0.0000 N   0  0  0  0  0  0  0  0  0  0  0  0
   -2.7958    2.6996    0.0000 C   0  0  0  0  0  0  0  0  0  0  0  0
   -1.7672    2.0952    0.0000 C   0  0  0  0  0  0  0  0  0  0  0  0
   -4.0360    3.4124    0.0000 C   0  0  0  0  0  0  0  0  0  0  0  0
   -4.8246    2.1941    0.0000 C   0  0  0  0  0  0  0  0  0  0  0  0
   -3.3132    0.7383    0.0000 O   0  0  0  0  0  0  0  0  0  0  0  0
   -5.3303    1.3108    0.0000 O   0  0  0  0  0  0  0  0  0  0  0  0
   -5.4586    0.3162    0.0000 C   0  0  0  0  0  0  0  0  0  0  0  0
   -5.4498   -0.5246    0.0000 C   0  0  0  0  0  0  0  0  0  0  0  0
   -5.4447   -1.3496    0.0000 C   0  0  0  0  0  0  0  0  0  0  0  0
   -4.7340   -1.7553    0.0000 O   0  0  0  0  0  0  0  0  0  0  0  0
   -1.8723   -1.7566    0.0000 O   0  0  0  0  0  0  0  0  0  0  0  0
   -3.2996   -0.0994    0.0000 C   0  0  0  0  0  0  0  0  0  0  0  0
   -1.1556   -0.5136    0.0000 O   0  0  0  0  0  0  0  0  0  0  0  0
   -1.8746    1.5583    0.0000 O   0  0  0  0  0  0  0  0  0  0  0  0
   -1.0450    0.7334    0.0000 C   0  0  0  0  0  0  0  0  0  0  0  0
   -0.4403   -0.1026    0.0000 C   0  0  0  0  0  0  0  0  0  0  0  0
    0.2694   -0.5216    0.0000 O   0  0  0  0  0  0  0  0  0  0  0  0
    0.9826   -0.1141    0.0000 C   0  0  0  0  0  0  0  0  0  0  0  0
    0.9886    0.7112    0.0000 C   0  0  0  0  0  0  0  0  0  0  0  0
    0.2752    1.1274    0.0000 C   0  0  0  0  0  0  0  0  0  0  0  0
   -0.4443    0.7183    0.0000 C   0  0  0  0  0  0  0  0  0  0  0  0
   -0.4491    1.5446    0.0000 O   0  0  0  0  0  0  0  0  0  0  0  0
    0.2797    1.9524    0.0000 N   0  0  0  0  0  0  0  0  0  0  0  0
    1.6946   -0.5308    0.0000 C   0  0  0  0  0  0  0  0  0  0  0  0
    0.9965    2.3609    0.0000 C   0  0  0  0  0  0  0  0  0  0  0  0
   -0.4324    2.3688    0.0000 C   0  0  0  0  0  0  0  0  0  0  0  0
    1.7086    1.9445    0.0000 C   0  0  0  0  0  0  0  0  0  0  0  0
    1.7021    1.1215    0.0000 C   0  0  0  0  0  0  0  0  0  0  0  0
    2.4135    0.7052    0.0000 C   0  0  0  0  0  0  0  0  0  0  0  0
    3.1312    1.1137    0.0000 C   0  0  0  0  0  0  0  0  0  0  0  0
    3.1331    1.9430    0.0000 C   0  0  0  0  0  0  0  0  0  0  0  0
    2.4212    2.3556    0.0000 C   0  0  0  0  0  0  0  0  0  0  0  0
   -0.4491   -0.9259    0.0000 H   0  0  0  0  0  0  0  0  0  0  0  0
    3.8419    0.7012    0.0000 C   0  0  0  0  0  0  0  0  0  0  0  0
    3.9247   -0.1196    0.0000 C   0  0  0  0  0  0  0  0  0  0  0  0
    4.7310   -0.2945    0.0000 N   0  0  0  0  0  0  0  0  0  0  0  0
    5.1465    0.4183    0.0000 N   0  0  0  0  0  0  0  0  0  0  0  0
    4.5970    1.0335    0.0000 N   0  0  0  0  0  0  0  0  0  0  0  0
    5.0633   -1.0495    0.0000 C   0  0  0  0  0  0  0  0  0  0  0  0
    5.8835   -1.1392    0.0000 C   0  0  0  0  0  0  0  0  0  0  0  0
    6.2159   -1.8943    0.0000 C   0  0  0  0  0  0  0  0  0  0  0  0
    7.0359   -1.9839    0.0000 C   0  0  0  0  0  0  0  0  0  0  0  0
    7.3683   -2.7391    0.0000 C   0  0  0  0  0  0  0  0  0  0  0  0
   -1.8737   -2.5815    0.0000 C   0  0  0  0  0  0  0  0  0  0  0  0
   -2.5900   -2.9903    0.0000 C   0  0  0  0  0  0  0  0  0  0  0  0
   -2.5934   -3.8116    0.0000 C   0  0  0  0  0  0  0  0  0  0  0  0
   -1.8815   -4.2292    0.0000 C   0  0  0  0  0  0  0  0  0  0  0  0
   -1.1645   -3.8191    0.0000 C   0  0  0  0  0  0  0  0  0  0  0  0
   -1.1595   -2.9915    0.0000 O   0  0  0  0  0  0  0  0  0  0  0  0
   -0.4522   -4.2352    0.0000 C   0  0  0  0  0  0  0  0  0  0  0  0
   -3.3091   -3.3962    0.0000 O   0  0  0  0  0  0  0  0  0  0  0  0
   -3.3072   -2.5712    0.0000 C   0  0  0  0  0  0  0  0  0  0  0  0
   -4.0245   -3.8070    0.0000 C   0  0  0  0  0  0  0  0  0  0  0  0
   -2.5930   -4.6366    0.0000 C   0  0  0  0  0  0  0  0  0  0  0  0
   -1.8860   -5.0542    0.0000 O   0  0  0  0  0  0  0  0  0  0  0  0
   -1.1641   -2.1633    0.0000 H   0  0  0  0  0  0  0  0  0  0  0  0
    8.1885   -2.8287    0.0000 C   0  0  0  0  0  0  0  0  0  0  0  0
    8.5208   -3.5837    0.0000 C   0  0  0  0  0  0  0  0  0  0  0  0
 35 36  1  0
 36 37  1  0
 37 38  1  0
 38 39  1  0
 15 20  1  6
 39 40  1  6
  9 10  1  0
 38 41  1  1
 18 21  1  0
 36 42  1  1
  1  3  2  0
 41 43  1  0
 16 22  1  1
 41 44  1  0
  1  2  1  0
 43 45  1  0
 17 23  1  1
 45 46  2  0
  5  6  1  0
 46 47  1  0
  9 24  1  1
 47 48  2  0
 11 12  1  0
 48 49  1  0
  9 25  1  0
 49 50  2  0
 50 45  1  0
 12 13  1  0
 34 51  1  6
 52 53  2  0
 10 26  1  6
 13 14  1  0
 26 27  1  0
  6  7  1  0
  5 28  2  0
 53 54  1  0
 54 55  1  0
 55 56  2  0
 56 52  1  0
 48 52  1  0
  6 70  1  1
 54 57  1  0
  7 11  1  0
 57 58  1  0
  7 29  1  6
 58 59  1  0
  2  4  1  0
 59 60  1  0
 11 30  1  6
 60 61  1  0
  8  5  1  0
 29 62  1  0
 62 63  1  0
 12 31  1  6
 14 15  1  0
 13 32  1  1
 16 17  1  0
 13 33  1  0
 62 67  1  0
 63 64  1  0
 64 65  1  0
 65 66  1  0
 66 67  1  0
 66 68  1  1
 31 34  1  0
 64 69  1  0
 34 35  1  0
 16 18  1  0
 69 71  1  0
  8 10  1  0
 64 72  1  1
 18 19  1  0
 65 73  1  6
 19 15  1  0
 62 74  1  1
 17  9  1  0
 61 75  1  0
 34 39  1  0
 75 76  1  0
 76  1  1  0
M  END

> <chembl_id>
CHEMBL455342

> <chembl_pref_name>
None

$$$$

     RDKit          2D

 64 67  0  0  0  0  0  0  0  0999 V2000
   17.1991  -12.7881    0.0000 C   0  0  0  0  0  0  0  0  0  0  0  0
   17.5315  -13.5432    0.0000 N   0  0  0  0  0  0  0  0  0  0  0  0
   17.6868  -12.1228    0.0000 O   0  0  0  0  0  0  0  0  0  0  0  0
   18.3515  -13.6328    0.0000 O   0  0  0  0  0  0  0  0  0  0  0  0
    3.8408  -10.4544    0.0000 C   0  0  0  0  0  0  0  0  0  0  0  0
    4.5552  -10.8669    0.0000 C   0  0  0  0  0  0  0  0  0  0  0  0
    5.2743  -10.4544    0.0000 C   0  0  0  0  0  0  0  0  0  0  0  0
    3.8408   -9.6248    0.0000 O   0  0  0  0  0  0  0  0  0  0  0  0
    3.1201   -8.3902    0.0000 C   0  0  0  0  0  0  0  0  0  0  0  0
    3.1224   -9.2191    0.0000 C   0  0  0  0  0  0  0  0  0  0  0  0
    5.2748   -9.6239    0.0000 C   0  0  0  0  0  0  0  0  0  0  0  0
    5.9910   -9.2111    0.0000 C   0  0  0  0  0  0  0  0  0  0  0  0
    5.9939   -8.3805    0.0000 C   0  0  0  0  0  0  0  0  0  0  0  0
    5.2751   -7.9628    0.0000 C   0  0  0  0  0  0  0  0  0  0  0  0
    5.2764   -7.1331    0.0000 C   0  0  0  0  0  0  0  0  0  0  0  0
    3.8330   -7.1291    0.0000 C   0  0  0  0  0  0  0  0  0  0  0  0
    3.8300   -7.9651    0.0000 C   0  0  0  0  0  0  0  0  0  0  0  0
    4.2395   -6.4120    0.0000 N   0  0  0  0  0  0  0  0  0  0  0  0
    5.0645   -6.4120    0.0000 C   0  0  0  0  0  0  0  0  0  0  0  0
    6.0930   -7.0162    0.0000 C   0  0  0  0  0  0  0  0  0  0  0  0
    3.8242   -5.6991    0.0000 C   0  0  0  0  0  0  0  0  0  0  0  0
    3.0356   -6.9173    0.0000 C   0  0  0  0  0  0  0  0  0  0  0  0
    4.5470   -8.3732    0.0000 O   0  0  0  0  0  0  0  0  0  0  0  0
    2.5300   -7.8007    0.0000 O   0  0  0  0  0  0  0  0  0  0  0  0
    2.4016   -8.7952    0.0000 C   0  0  0  0  0  0  0  0  0  0  0  0
    2.4105   -9.6360    0.0000 C   0  0  0  0  0  0  0  0  0  0  0  0
    2.4156  -10.4610    0.0000 C   0  0  0  0  0  0  0  0  0  0  0  0
    3.1263  -10.8669    0.0000 O   0  0  0  0  0  0  0  0  0  0  0  0
    5.9881  -10.8681    0.0000 O   0  0  0  0  0  0  0  0  0  0  0  0
    4.5606   -9.2109    0.0000 C   0  0  0  0  0  0  0  0  0  0  0  0
    6.7046   -9.6251    0.0000 O   0  0  0  0  0  0  0  0  0  0  0  0
    5.9858   -7.5532    0.0000 O   0  0  0  0  0  0  0  0  0  0  0  0
    6.8153   -8.3782    0.0000 C   0  0  0  0  0  0  0  0  0  0  0  0
    7.4199   -9.2141    0.0000 C   0  0  0  0  0  0  0  0  0  0  0  0
    8.1296   -9.6331    0.0000 O   0  0  0  0  0  0  0  0  0  0  0  0
    8.8428   -9.2256    0.0000 C   0  0  0  0  0  0  0  0  0  0  0  0
    8.8489   -8.4003    0.0000 C   0  0  0  0  0  0  0  0  0  0  0  0
    8.1354   -7.9841    0.0000 C   0  0  0  0  0  0  0  0  0  0  0  0
    7.4161   -8.3932    0.0000 C   0  0  0  0  0  0  0  0  0  0  0  0
    7.4111   -7.5670    0.0000 O   0  0  0  0  0  0  0  0  0  0  0  0
    8.1400   -7.1591    0.0000 N   0  0  0  0  0  0  0  0  0  0  0  0
    9.5549   -9.6423    0.0000 C   0  0  0  0  0  0  0  0  0  0  0  0
    8.8567   -6.7506    0.0000 C   0  0  0  0  0  0  0  0  0  0  0  0
    7.4278   -6.7427    0.0000 C   0  0  0  0  0  0  0  0  0  0  0  0
    9.5689   -7.1670    0.0000 C   0  0  0  0  0  0  0  0  0  0  0  0
    9.5625   -7.9899    0.0000 C   0  0  0  0  0  0  0  0  0  0  0  0
   10.2737   -8.4064    0.0000 C   0  0  0  0  0  0  0  0  0  0  0  0
   10.9914   -7.9977    0.0000 C   0  0  0  0  0  0  0  0  0  0  0  0
   10.9934   -7.1685    0.0000 C   0  0  0  0  0  0  0  0  0  0  0  0
   10.2814   -6.7559    0.0000 C   0  0  0  0  0  0  0  0  0  0  0  0
    7.4111  -10.0373    0.0000 H   0  0  0  0  0  0  0  0  0  0  0  0
   11.7022   -8.4102    0.0000 C   0  0  0  0  0  0  0  0  0  0  0  0
   11.7851   -9.2310    0.0000 C   0  0  0  0  0  0  0  0  0  0  0  0
   12.5912   -9.4059    0.0000 N   0  0  0  0  0  0  0  0  0  0  0  0
   13.0068   -8.6932    0.0000 N   0  0  0  0  0  0  0  0  0  0  0  0
   12.4573   -8.0779    0.0000 N   0  0  0  0  0  0  0  0  0  0  0  0
   12.9237  -10.1611    0.0000 C   0  0  0  0  0  0  0  0  0  0  0  0
   13.7437  -10.2507    0.0000 C   0  0  0  0  0  0  0  0  0  0  0  0
   14.0761  -11.0057    0.0000 C   0  0  0  0  0  0  0  0  0  0  0  0
   14.8962  -11.0955    0.0000 C   0  0  0  0  0  0  0  0  0  0  0  0
   15.2286  -11.8505    0.0000 C   0  0  0  0  0  0  0  0  0  0  0  0
    4.5530  -11.6827    0.0000 C   0  0  0  0  0  0  0  0  0  0  0  0
   16.0487  -11.9402    0.0000 C   0  0  0  0  0  0  0  0  0  0  0  0
   16.3811  -12.6953    0.0000 C   0  0  0  0  0  0  0  0  0  0  0  0
 13 32  1  1
 16 17  1  0
 13 33  1  0
 31 34  1  0
 34 35  1  0
 16 18  1  0
  8 10  1  0
 18 19  1  0
 19 15  1  0
 17  9  1  0
 34 39  1  0
 35 36  1  0
 36 37  1  0
 37 38  1  0
 38 39  1  0
 15 20  1  6
 39 40  1  6
  9 10  1  0
 38 41  1  1
 18 21  1  0
 36 42  1  1
  1  3  2  0
 41 43  1  0
 16 22  1  1
 41 44  1  0
  1  2  1  0
 43 45  1  0
 17 23  1  1
 45 46  2  0
  5  6  1  0
 46 47  1  0
  9 24  1  1
 47 48  2  0
 11 12  1  0
 48 49  1  0
  9 25  1  0
 49 50  2  0
 50 45  1  0
 12 13  1  0
 34 51  1  6
 52 53  2  0
 10 26  1  6
 13 14  1  0
 26 27  1  0
  6  7  1  0
  5 28  2  0
 53 54  1  0
 54 55  1  0
 55 56  2  0
 56 52  1  0
 48 52  1  0
  6 62  1  1
 54 57  1  0
  7 11  1  0
 57 58  1  0
  7 29  1  6
 58 59  1  0
  2  4  1  0
 59 60  1  0
 11 30  1  6
 60 61  1  0
  8  5  1  0
 12 31  1  6
 61 63  1  0
 14 15  1  0
 63 64  1  0
 64  1  1  0
M  END

> <chembl_id>
CHEMBL507617

> <chembl_pref_name>
None

$$$$

     RDKit          2D

 77 81  0  0  0  0  0  0  0  0999 V2000
    8.9837  -20.0559    0.0000 C   0  0  0  0  0  0  0  0  0  0  0  0
    8.4960  -20.7213    0.0000 N   0  0  0  0  0  0  0  0  0  0  0  0
    9.8038  -20.1457    0.0000 O   0  0  0  0  0  0  0  0  0  0  0  0
    8.8283  -21.4764    0.0000 O   0  0  0  0  0  0  0  0  0  0  0  0
   -4.7070  -16.9718    0.0000 C   0  0  0  0  0  0  0  0  0  0  0  0
   -3.9925  -17.3843    0.0000 C   0  0  0  0  0  0  0  0  0  0  0  0
   -3.2735  -16.9718    0.0000 C   0  0  0  0  0  0  0  0  0  0  0  0
   -4.7070  -16.1422    0.0000 O   0  0  0  0  0  0  0  0  0  0  0  0
   -5.4277  -14.9076    0.0000 C   0  0  0  0  0  0  0  0  0  0  0  0
   -5.4254  -15.7365    0.0000 C   0  0  0  0  0  0  0  0  0  0  0  0
   -3.2730  -16.1413    0.0000 C   0  0  0  0  0  0  0  0  0  0  0  0
   -2.5568  -15.7285    0.0000 C   0  0  0  0  0  0  0  0  0  0  0  0
   -2.5538  -14.8979    0.0000 C   0  0  0  0  0  0  0  0  0  0  0  0
   -3.2728  -14.4801    0.0000 C   0  0  0  0  0  0  0  0  0  0  0  0
   -3.2714  -13.6505    0.0000 C   0  0  0  0  0  0  0  0  0  0  0  0
   -4.7147  -13.6464    0.0000 C   0  0  0  0  0  0  0  0  0  0  0  0
   -4.7178  -14.4824    0.0000 C   0  0  0  0  0  0  0  0  0  0  0  0
   -4.3083  -12.9294    0.0000 N   0  0  0  0  0  0  0  0  0  0  0  0
   -3.4833  -12.9294    0.0000 C   0  0  0  0  0  0  0  0  0  0  0  0
   -2.4547  -13.5336    0.0000 C   0  0  0  0  0  0  0  0  0  0  0  0
   -4.7235  -12.2165    0.0000 C   0  0  0  0  0  0  0  0  0  0  0  0
   -5.5121  -13.4347    0.0000 C   0  0  0  0  0  0  0  0  0  0  0  0
   -4.0007  -14.8905    0.0000 O   0  0  0  0  0  0  0  0  0  0  0  0
   -6.0178  -14.3181    0.0000 O   0  0  0  0  0  0  0  0  0  0  0  0
   -6.1461  -15.3126    0.0000 C   0  0  0  0  0  0  0  0  0  0  0  0
   -6.1373  -16.1534    0.0000 C   0  0  0  0  0  0  0  0  0  0  0  0
   -6.1322  -16.9784    0.0000 C   0  0  0  0  0  0  0  0  0  0  0  0
   -5.4215  -17.3843    0.0000 O   0  0  0  0  0  0  0  0  0  0  0  0
   -2.5598  -17.3855    0.0000 O   0  0  0  0  0  0  0  0  0  0  0  0
   -3.9871  -15.7283    0.0000 C   0  0  0  0  0  0  0  0  0  0  0  0
   -1.8431  -16.1425    0.0000 O   0  0  0  0  0  0  0  0  0  0  0  0
   -2.5621  -14.0706    0.0000 O   0  0  0  0  0  0  0  0  0  0  0  0
   -1.7325  -14.8956    0.0000 C   0  0  0  0  0  0  0  0  0  0  0  0
   -1.1278  -15.7315    0.0000 C   0  0  0  0  0  0  0  0  0  0  0  0
   -0.4181  -16.1504    0.0000 O   0  0  0  0  0  0  0  0  0  0  0  0
    0.2951  -15.7430    0.0000 C   0  0  0  0  0  0  0  0  0  0  0  0
    0.3011  -14.9177    0.0000 C   0  0  0  0  0  0  0  0  0  0  0  0
   -0.4123  -14.5015    0.0000 C   0  0  0  0  0  0  0  0  0  0  0  0
   -1.1318  -14.9105    0.0000 C   0  0  0  0  0  0  0  0  0  0  0  0
   -1.1366  -14.0843    0.0000 O   0  0  0  0  0  0  0  0  0  0  0  0
   -0.4078  -13.6765    0.0000 N   0  0  0  0  0  0  0  0  0  0  0  0
    1.0071  -16.1597    0.0000 C   0  0  0  0  0  0  0  0  0  0  0  0
    0.3090  -13.2679    0.0000 C   0  0  0  0  0  0  0  0  0  0  0  0
   -1.1199  -13.2600    0.0000 C   0  0  0  0  0  0  0  0  0  0  0  0
    1.0211  -13.6844    0.0000 C   0  0  0  0  0  0  0  0  0  0  0  0
    1.0146  -14.5073    0.0000 C   0  0  0  0  0  0  0  0  0  0  0  0
    1.7260  -14.9237    0.0000 C   0  0  0  0  0  0  0  0  0  0  0  0
    2.4437  -14.5151    0.0000 C   0  0  0  0  0  0  0  0  0  0  0  0
    2.4456  -13.6858    0.0000 C   0  0  0  0  0  0  0  0  0  0  0  0
    1.7337  -13.2732    0.0000 C   0  0  0  0  0  0  0  0  0  0  0  0
   -1.1366  -16.5547    0.0000 H   0  0  0  0  0  0  0  0  0  0  0  0
    3.1544  -14.9276    0.0000 C   0  0  0  0  0  0  0  0  0  0  0  0
    3.2372  -15.7484    0.0000 C   0  0  0  0  0  0  0  0  0  0  0  0
    4.0435  -15.9233    0.0000 N   0  0  0  0  0  0  0  0  0  0  0  0
    4.4590  -15.2106    0.0000 N   0  0  0  0  0  0  0  0  0  0  0  0
    3.9095  -14.5953    0.0000 N   0  0  0  0  0  0  0  0  0  0  0  0
    4.3758  -16.6784    0.0000 C   0  0  0  0  0  0  0  0  0  0  0  0
    5.1960  -16.7681    0.0000 C   0  0  0  0  0  0  0  0  0  0  0  0
    5.5284  -17.5231    0.0000 C   0  0  0  0  0  0  0  0  0  0  0  0
    6.3484  -17.6129    0.0000 C   0  0  0  0  0  0  0  0  0  0  0  0
    6.6808  -18.3679    0.0000 C   0  0  0  0  0  0  0  0  0  0  0  0
   -2.5612  -18.2105    0.0000 C   0  0  0  0  0  0  0  0  0  0  0  0
   -3.2775  -18.6191    0.0000 C   0  0  0  0  0  0  0  0  0  0  0  0
   -3.2809  -19.4405    0.0000 C   0  0  0  0  0  0  0  0  0  0  0  0
   -2.5690  -19.8580    0.0000 C   0  0  0  0  0  0  0  0  0  0  0  0
   -1.8520  -19.4481    0.0000 C   0  0  0  0  0  0  0  0  0  0  0  0
   -1.8470  -18.6204    0.0000 O   0  0  0  0  0  0  0  0  0  0  0  0
   -1.1397  -19.8642    0.0000 C   0  0  0  0  0  0  0  0  0  0  0  0
   -3.9966  -19.0250    0.0000 O   0  0  0  0  0  0  0  0  0  0  0  0
   -3.9947  -18.2000    0.0000 C   0  0  0  0  0  0  0  0  0  0  0  0
   -4.7120  -19.4358    0.0000 C   0  0  0  0  0  0  0  0  0  0  0  0
   -3.2805  -20.2655    0.0000 C   0  0  0  0  0  0  0  0  0  0  0  0
   -2.5735  -20.6830    0.0000 O   0  0  0  0  0  0  0  0  0  0  0  0
   -1.8516  -17.7922    0.0000 H   0  0  0  0  0  0  0  0  0  0  0  0
    7.5010  -18.4575    0.0000 C   0  0  0  0  0  0  0  0  0  0  0  0
    7.8333  -19.2127    0.0000 C   0  0  0  0  0  0  0  0  0  0  0  0
    8.6534  -19.3023    0.0000 C   0  0  0  0  0  0  0  0  0  0  0  0
 36 37  1  0
 37 38  1  0
 38 39  1  0
 15 20  1  6
 39 40  1  6
  9 10  1  0
 38 41  1  1
 18 21  1  0
 36 42  1  1
  1  3  2  0
 41 43  1  0
 16 22  1  1
 41 44  1  0
  1  2  1  0
 43 45  1  0
 17 23  1  1
 45 46  2  0
  5  6  1  0
 46 47  1  0
  9 24  1  1
 47 48  2  0
 11 12  1  0
 48 49  1  0
  9 25  1  0
 49 50  2  0
 50 45  1  0
 12 13  1  0
 34 51  1  6
 52 53  2  0
 10 26  1  6
 13 14  1  0
 26 27  1  0
  6  7  1  0
  5 28  2  0
 53 54  1  0
 54 55  1  0
 55 56  2  0
 56 52  1  0
 48 52  1  0
  6 70  1  1
 54 57  1  0
  7 11  1  0
 57 58  1  0
  7 29  1  6
 58 59  1  0
  2  4  1  0
 59 60  1  0
 11 30  1  6
 60 61  1  0
  8  5  1  0
 29 62  1  0
 62 63  1  0
 12 31  1  6
 14 15  1  0
 13 32  1  1
 16 17  1  0
 13 33  1  0
 62 67  1  0
 63 64  1  0
 64 65  1  0
 65 66  1  0
 66 67  1  0
 66 68  1  1
 31 34  1  0
 64 69  1  0
 34 35  1  0
 16 18  1  0
 69 71  1  0
  8 10  1  0
 64 72  1  1
 18 19  1  0
 65 73  1  6
 19 15  1  0
 62 74  1  1
 17  9  1  0
 61 75  1  0
 34 39  1  0
 75 76  1  0
 35 36  1  0
 76 77  1  0
 77  1  1  0
M  END

> <chembl_id>
CHEMBL509089

> <chembl_pref_name>
None

$$$$

     RDKit          2D

 64 67  0  0  0  0  0  0  0  0999 V2000
   18.7874  -15.2677    0.0000 C   0  0  0  0  0  0  0  0  0  0  0  0
   18.0579  -15.6599    0.0000 C   0  0  0  0  0  0  0  0  0  0  0  0
   18.0300  -16.4795    0.0000 C   0  0  0  0  0  0  0  0  0  0  0  0
   18.7350  -16.9226    0.0000 C   0  0  0  0  0  0  0  0  0  0  0  0
   19.4650  -16.5297    0.0000 C   0  0  0  0  0  0  0  0  0  0  0  0
   19.4899  -15.6987    0.0000 O   0  0  0  0  0  0  0  0  0  0  0  0
   20.1623  -16.9645    0.0000 C   0  0  0  0  0  0  0  0  0  0  0  0
   17.1321  -16.3121    0.0000 C   0  0  0  0  0  0  0  0  0  0  0  0
   17.8017  -17.3576    0.0000 O   0  0  0  0  0  0  0  0  0  0  0  0
   17.0145  -17.7778    0.0000 C   0  0  0  0  0  0  0  0  0  0  0  0
   18.7059  -17.7421    0.0000 O   0  0  0  0  0  0  0  0  0  0  0  0
   19.4079  -18.1772    0.0000 C   0  0  0  0  0  0  0  0  0  0  0  0
   19.3788  -19.0015    0.0000 N   0  0  0  0  0  0  0  0  0  0  0  0
   20.1341  -17.7926    0.0000 O   0  0  0  0  0  0  0  0  0  0  0  0
   20.0759  -19.4365    0.0000 C   0  0  0  0  0  0  0  0  0  0  0  0
   20.0517  -20.2610    0.0000 C   0  0  0  0  0  0  0  0  0  0  0  0
   20.7488  -20.6960    0.0000 C   0  0  0  0  0  0  0  0  0  0  0  0
   20.7227  -21.5172    0.0000 C   0  0  0  0  0  0  0  0  0  0  0  0
   21.4189  -21.9522    0.0000 C   0  0  0  0  0  0  0  0  0  0  0  0
   22.1462  -21.5626    0.0000 C   0  0  0  0  0  0  0  0  0  0  0  0
   22.1726  -20.7336    0.0000 C   0  0  0  0  0  0  0  0  0  0  0  0
   21.4708  -20.3026    0.0000 C   0  0  0  0  0  0  0  0  0  0  0  0
   19.4027  -14.6386    0.0000 H   0  0  0  0  0  0  0  0  0  0  0  0
   18.7779  -14.3849    0.0000 O   0  0  0  0  0  0  0  0  0  0  0  0
   19.9310  -11.6364    0.0000 C   0  0  0  0  0  0  0  0  0  0  0  0
   19.2124  -12.0535    0.0000 C   0  0  0  0  0  0  0  0  0  0  0  0
   19.2176  -12.8783    0.0000 O   0  0  0  0  0  0  0  0  0  0  0  0
   19.9348  -13.2881    0.0000 C   0  0  0  0  0  0  0  0  0  0  0  0
   20.6533  -12.8711    0.0000 C   0  0  0  0  0  0  0  0  0  0  0  0
   20.6498  -12.0396    0.0000 C   0  0  0  0  0  0  0  0  0  0  0  0
   15.1365  -10.9299    0.0000 N   0  0  0  0  0  0  0  0  0  0  0  0
   16.5732  -10.8277    0.0000 C   0  0  0  0  0  0  0  0  0  0  0  0
   15.1542  -11.7031    0.0000 C   0  0  0  0  0  0  0  0  0  0  0  0
   16.5756  -11.5838    0.0000 C   0  0  0  0  0  0  0  0  0  0  0  0
   14.3797  -11.9885    0.0000 C   0  0  0  0  0  0  0  0  0  0  0  0
   17.3755  -11.9672    0.0000 C   0  0  0  0  0  0  0  0  0  0  0  0
   14.3797  -12.8011    0.0000 C   0  0  0  0  0  0  0  0  0  0  0  0
   17.4199  -12.8660    0.0000 C   0  0  0  0  0  0  0  0  0  0  0  0
   15.1548  -13.0413    0.0000 C   0  0  0  0  0  0  0  0  0  0  0  0
   16.5508  -13.0389    0.0000 C   0  0  0  0  0  0  0  0  0  0  0  0
   15.2139  -13.8316    0.0000 O   0  0  0  0  0  0  0  0  0  0  0  0
   16.5629  -13.8346    0.0000 C   0  0  0  0  0  0  0  0  0  0  0  0
   15.9221  -14.0959    0.0000 C   0  0  0  0  0  0  0  0  0  0  0  0
   15.4392  -10.1723    0.0000 C   0  0  0  0  0  0  0  0  0  0  0  0
   16.3324  -10.1723    0.0000 C   0  0  0  0  0  0  0  0  0  0  0  0
   16.7995   -9.4947    0.0000 C   0  0  0  0  0  0  0  0  0  0  0  0
   14.3111  -10.3485    0.0000 C   0  0  0  0  0  0  0  0  0  0  0  0
   14.2091  -11.0656    0.0000 C   0  0  0  0  0  0  0  0  0  0  0  0
   13.4828  -11.6135    0.0000 O   0  0  0  0  0  0  0  0  0  0  0  0
   13.4135  -12.4714    0.0000 O   0  0  0  0  0  0  0  0  0  0  0  0
   13.6575  -13.3598    0.0000 C   0  0  0  0  0  0  0  0  0  0  0  0
   14.4434  -13.5355    0.0000 C   0  0  0  0  0  0  0  0  0  0  0  0
   14.4141  -14.5996    0.0000 C   0  0  0  0  0  0  0  0  0  0  0  0
   15.9354  -14.9206    0.0000 O   0  0  0  0  0  0  0  0  0  0  0  0
   17.2535  -14.2875    0.0000 C   0  0  0  0  0  0  0  0  0  0  0  0
   18.0471  -13.1939    0.0000 C   0  0  0  0  0  0  0  0  0  0  0  0
   18.1765  -11.3881    0.0000 O   0  0  0  0  0  0  0  0  0  0  0  0
   16.9914  -10.4945    0.0000 O   0  0  0  0  0  0  0  0  0  0  0  0
   19.9387  -14.1130    0.0000 C   0  0  0  0  0  0  0  0  0  0  0  0
   19.9237  -10.8116    0.0000 O   0  0  0  0  0  0  0  0  0  0  0  0
   21.3587  -11.6239    0.0000 N   0  0  0  0  0  0  0  0  0  0  0  0
   22.0740  -12.0333    0.0000 C   0  0  0  0  0  0  0  0  0  0  0  0
   21.3524  -10.7991    0.0000 C   0  0  0  0  0  0  0  0  0  0  0  0
   17.3575  -11.1534    0.0000 C   0  0  0  0  0  0  0  0  0  0  0  0
 15 16  1  0
  3  8  1  1
 16 17  1  0
  1  6  1  0
 17 18  2  0
  3  9  1  0
 18 19  1  0
  2  3  1  0
 19 20  2  0
  9 10  1  0
 20 21  1  0
 31 33  1  0
 32 34  1  0
 33 35  1  0
 34 36  1  0
 35 37  1  0
 36 38  1  0
 37 39  1  0
 38 40  1  0
 39 41  1  0
 40 42  1  0
 41 43  1  0
 42 43  1  0
  3  4  1  0
 31 44  1  0
 21 22  2  0
 32 45  1  0
 44 45  1  0
 22 17  1  0
 45 46  1  6
  4 11  1  6
 31 47  1  0
  1 23  1  1
 33 48  1  6
  4  5  1  0
 35 49  1  6
  1 24  1  0
 37 50  1  1
 25 26  1  0
 37 51  1  0
 11 12  1  0
 39 52  1  1
  5  6  1  0
 52 53  1  0
 12 13  1  0
 43 54  2  0
 42 55  1  1
 40 24  1  1
 12 14  2  0
 38 56  1  1
  5  7  1  1
 36 57  1  6
 25 30  1  0
 34 58  1  6
 26 57  1  1
 26 27  1  0
 28 59  1  1
 27 28  1  0
 25 60  1  6
 28 29  1  0
 30 61  1  1
 29 30  1  0
 61 62  1  0
 13 15  1  0
 61 63  1  0
  1  2  1  0
 34 64  1  0
M  END

> <chembl_id>
CHEMBL584582

> <chembl_pref_name>
None

$$$$

     RDKit          2D

 59 61  0  0  0  0  0  0  0  0999 V2000
   -1.1949   -1.3793    0.0000 C   0  0  0  0  0  0  0  0  0  0  0  0
   -1.9236   -1.7711    0.0000 C   0  0  0  0  0  0  0  0  0  0  0  0
   -1.9514   -2.5898    0.0000 C   0  0  0  0  0  0  0  0  0  0  0  0
   -1.2472   -3.0325    0.0000 C   0  0  0  0  0  0  0  0  0  0  0  0
   -0.5180   -2.6401    0.0000 C   0  0  0  0  0  0  0  0  0  0  0  0
   -0.4930   -1.8098    0.0000 O   0  0  0  0  0  0  0  0  0  0  0  0
    0.1786   -3.0743    0.0000 C   0  0  0  0  0  0  0  0  0  0  0  0
   -2.8485   -2.4226    0.0000 C   0  0  0  0  0  0  0  0  0  0  0  0
   -2.1795   -3.4671    0.0000 O   0  0  0  0  0  0  0  0  0  0  0  0
   -2.9660   -3.8868    0.0000 C   0  0  0  0  0  0  0  0  0  0  0  0
   -1.2763   -3.8513    0.0000 O   0  0  0  0  0  0  0  0  0  0  0  0
   -0.5750   -4.2858    0.0000 C   0  0  0  0  0  0  0  0  0  0  0  0
   -0.6041   -5.1093    0.0000 N   0  0  0  0  0  0  0  0  0  0  0  0
    0.1505   -3.9016    0.0000 O   0  0  0  0  0  0  0  0  0  0  0  0
   -1.3319   -5.4960    0.0000 C   0  0  0  0  0  0  0  0  0  0  0  0
   -1.3609   -6.3196    0.0000 C   0  0  0  0  0  0  0  0  0  0  0  0
   -2.0887   -6.7062    0.0000 C   0  0  0  0  0  0  0  0  0  0  0  0
   -0.4877   -0.9606    0.0000 H   0  0  0  0  0  0  0  0  0  0  0  0
   -1.2044   -0.5510    0.0000 O   0  0  0  0  0  0  0  0  0  0  0  0
   -0.0573    2.1994    0.0000 C   0  0  0  0  0  0  0  0  0  0  0  0
   -0.7752    1.7828    0.0000 C   0  0  0  0  0  0  0  0  0  0  0  0
   -0.7700    0.9588    0.0000 O   0  0  0  0  0  0  0  0  0  0  0  0
   -0.0536    0.5494    0.0000 C   0  0  0  0  0  0  0  0  0  0  0  0
    0.6642    0.9661    0.0000 C   0  0  0  0  0  0  0  0  0  0  0  0
    0.6607    1.7967    0.0000 C   0  0  0  0  0  0  0  0  0  0  0  0
   -4.8469    2.9052    0.0000 N   0  0  0  0  0  0  0  0  0  0  0  0
   -3.4117    3.0074    0.0000 C   0  0  0  0  0  0  0  0  0  0  0  0
   -4.8293    2.1328    0.0000 C   0  0  0  0  0  0  0  0  0  0  0  0
   -3.4093    2.2520    0.0000 C   0  0  0  0  0  0  0  0  0  0  0  0
   -5.6029    1.8478    0.0000 C   0  0  0  0  0  0  0  0  0  0  0  0
   -2.6102    1.8691    0.0000 C   0  0  0  0  0  0  0  0  0  0  0  0
   -5.6029    1.0359    0.0000 C   0  0  0  0  0  0  0  0  0  0  0  0
   -2.5658    0.9711    0.0000 C   0  0  0  0  0  0  0  0  0  0  0  0
   -4.8287    0.7960    0.0000 C   0  0  0  0  0  0  0  0  0  0  0  0
   -3.4341    0.7984    0.0000 C   0  0  0  0  0  0  0  0  0  0  0  0
   -4.7696    0.0066    0.0000 O   0  0  0  0  0  0  0  0  0  0  0  0
   -3.4220    0.0035    0.0000 C   0  0  0  0  0  0  0  0  0  0  0  0
   -4.0622   -0.2575    0.0000 C   0  0  0  0  0  0  0  0  0  0  0  0
   -4.5445    3.6620    0.0000 C   0  0  0  0  0  0  0  0  0  0  0  0
   -3.6522    3.6620    0.0000 C   0  0  0  0  0  0  0  0  0  0  0  0
   -3.1856    4.3389    0.0000 C   0  0  0  0  0  0  0  0  0  0  0  0
   -5.6715    3.4860    0.0000 C   0  0  0  0  0  0  0  0  0  0  0  0
   -5.7733    2.7697    0.0000 C   0  0  0  0  0  0  0  0  0  0  0  0
   -6.4989    2.2224    0.0000 O   0  0  0  0  0  0  0  0  0  0  0  0
   -6.5682    1.3654    0.0000 O   0  0  0  0  0  0  0  0  0  0  0  0
   -6.3244    0.4778    0.0000 C   0  0  0  0  0  0  0  0  0  0  0  0
   -5.5393    0.3023    0.0000 C   0  0  0  0  0  0  0  0  0  0  0  0
   -5.5685   -0.7607    0.0000 C   0  0  0  0  0  0  0  0  0  0  0  0
   -4.0488   -1.0813    0.0000 O   0  0  0  0  0  0  0  0  0  0  0  0
   -2.7321   -0.4489    0.0000 C   0  0  0  0  0  0  0  0  0  0  0  0
   -1.9393    0.6435    0.0000 C   0  0  0  0  0  0  0  0  0  0  0  0
   -1.8101    2.4475    0.0000 O   0  0  0  0  0  0  0  0  0  0  0  0
   -2.8575    3.2183    0.0000 O   0  0  0  0  0  0  0  0  0  0  0  0
   -0.0496   -0.2745    0.0000 C   0  0  0  0  0  0  0  0  0  0  0  0
   -0.0646    3.0234    0.0000 O   0  0  0  0  0  0  0  0  0  0  0  0
    1.3689    2.2119    0.0000 N   0  0  0  0  0  0  0  0  0  0  0  0
    2.0834    1.8029    0.0000 C   0  0  0  0  0  0  0  0  0  0  0  0
    1.3626    3.0359    0.0000 C   0  0  0  0  0  0  0  0  0  0  0  0
   -2.5649    2.6721    0.0000 C   0  0  0  0  0  0  0  0  0  0  0  0
  3  8  1  1
 16 17  1  0
  1  6  1  0
  1 18  1  1
  3  9  1  0
 26 28  1  0
 27 29  1  0
 28 30  1  0
 29 31  1  0
 30 32  1  0
 31 33  1  0
 32 34  1  0
 33 35  1  0
 34 36  1  0
 35 37  1  0
 36 38  1  0
 37 38  1  0
  1 19  1  0
 26 39  1  0
 20 21  1  0
 27 40  1  0
 39 40  1  0
  2  3  1  0
 40 41  1  6
  9 10  1  0
 26 42  1  0
  3  4  1  0
 28 43  1  6
  4 11  1  6
 30 44  1  6
  4  5  1  0
 32 45  1  1
 11 12  1  0
 32 46  1  0
 20 25  1  0
 34 47  1  1
 21 22  1  0
 47 48  1  0
 22 23  1  0
 38 49  2  0
 23 24  1  0
 37 50  1  1
 35 19  1  1
 24 25  1  0
 33 51  1  1
  5  6  1  0
 31 52  1  6
 12 13  1  0
 29 53  1  6
 21 52  1  1
 23 54  1  1
 12 14  2  0
 20 55  1  6
  5  7  1  1
 25 56  1  1
 13 15  1  0
 56 57  1  0
  1  2  1  0
 56 58  1  0
 15 16  1  0
 29 59  1  0
M  END

> <chembl_id>
CHEMBL584782

> <chembl_pref_name>
None

$$$$

     RDKit          2D

 59 61  0  0  0  0  0  0  0  0999 V2000
    8.2990   -1.6817    0.0000 C   0  0  0  0  0  0  0  0  0  0  0  0
    7.5703   -2.0734    0.0000 C   0  0  0  0  0  0  0  0  0  0  0  0
    7.5424   -2.8922    0.0000 C   0  0  0  0  0  0  0  0  0  0  0  0
    8.2467   -3.3348    0.0000 C   0  0  0  0  0  0  0  0  0  0  0  0
    8.9759   -2.9424    0.0000 C   0  0  0  0  0  0  0  0  0  0  0  0
    9.0008   -2.1122    0.0000 O   0  0  0  0  0  0  0  0  0  0  0  0
    9.6725   -3.3767    0.0000 C   0  0  0  0  0  0  0  0  0  0  0  0
    6.6454   -2.7250    0.0000 C   0  0  0  0  0  0  0  0  0  0  0  0
    7.3144   -3.7693    0.0000 O   0  0  0  0  0  0  0  0  0  0  0  0
    6.5279   -4.1891    0.0000 C   0  0  0  0  0  0  0  0  0  0  0  0
    8.2176   -4.1535    0.0000 O   0  0  0  0  0  0  0  0  0  0  0  0
    8.9189   -4.5881    0.0000 C   0  0  0  0  0  0  0  0  0  0  0  0
    8.8898   -5.4117    0.0000 N   0  0  0  0  0  0  0  0  0  0  0  0
    9.6444   -4.2039    0.0000 O   0  0  0  0  0  0  0  0  0  0  0  0
    8.1620   -5.7983    0.0000 C   0  0  0  0  0  0  0  0  0  0  0  0
    8.1330   -6.6219    0.0000 C   0  0  0  0  0  0  0  0  0  0  0  0
    7.4052   -7.0086    0.0000 C   0  0  0  0  0  0  0  0  0  0  0  0
    9.0062   -1.2630    0.0000 H   0  0  0  0  0  0  0  0  0  0  0  0
    8.2894   -0.8534    0.0000 O   0  0  0  0  0  0  0  0  0  0  0  0
    9.4414    1.8922    0.0000 C   0  0  0  0  0  0  0  0  0  0  0  0
    8.7236    1.4756    0.0000 C   0  0  0  0  0  0  0  0  0  0  0  0
    8.7288    0.6516    0.0000 O   0  0  0  0  0  0  0  0  0  0  0  0
    9.4452    0.2422    0.0000 C   0  0  0  0  0  0  0  0  0  0  0  0
   10.1629    0.6589    0.0000 C   0  0  0  0  0  0  0  0  0  0  0  0
   10.1595    1.4895    0.0000 C   0  0  0  0  0  0  0  0  0  0  0  0
    4.6519    2.5980    0.0000 N   0  0  0  0  0  0  0  0  0  0  0  0
    6.0871    2.7002    0.0000 C   0  0  0  0  0  0  0  0  0  0  0  0
    4.6694    1.8256    0.0000 C   0  0  0  0  0  0  0  0  0  0  0  0
    6.0895    1.9448    0.0000 C   0  0  0  0  0  0  0  0  0  0  0  0
    3.8957    1.5406    0.0000 C   0  0  0  0  0  0  0  0  0  0  0  0
    6.8886    1.5619    0.0000 C   0  0  0  0  0  0  0  0  0  0  0  0
    3.8957    0.7287    0.0000 C   0  0  0  0  0  0  0  0  0  0  0  0
    6.9328    0.6639    0.0000 C   0  0  0  0  0  0  0  0  0  0  0  0
    4.6701    0.4888    0.0000 C   0  0  0  0  0  0  0  0  0  0  0  0
    6.0647    0.4912    0.0000 C   0  0  0  0  0  0  0  0  0  0  0  0
    4.7292   -0.3006    0.0000 O   0  0  0  0  0  0  0  0  0  0  0  0
    6.0768   -0.3037    0.0000 C   0  0  0  0  0  0  0  0  0  0  0  0
    5.4365   -0.5647    0.0000 C   0  0  0  0  0  0  0  0  0  0  0  0
    4.9541    3.3548    0.0000 C   0  0  0  0  0  0  0  0  0  0  0  0
    5.8465    3.3548    0.0000 C   0  0  0  0  0  0  0  0  0  0  0  0
    6.3132    4.0317    0.0000 C   0  0  0  0  0  0  0  0  0  0  0  0
    3.8272    3.1788    0.0000 C   0  0  0  0  0  0  0  0  0  0  0  0
    3.7253    2.4625    0.0000 C   0  0  0  0  0  0  0  0  0  0  0  0
    2.9999    1.9152    0.0000 O   0  0  0  0  0  0  0  0  0  0  0  0
    2.9306    1.0582    0.0000 O   0  0  0  0  0  0  0  0  0  0  0  0
    3.1744    0.1706    0.0000 C   0  0  0  0  0  0  0  0  0  0  0  0
    3.9594   -0.0049    0.0000 C   0  0  0  0  0  0  0  0  0  0  0  0
    3.9301   -1.0679    0.0000 C   0  0  0  0  0  0  0  0  0  0  0  0
    5.4499   -1.3885    0.0000 O   0  0  0  0  0  0  0  0  0  0  0  0
    6.7667   -0.7561    0.0000 C   0  0  0  0  0  0  0  0  0  0  0  0
    7.5595    0.3363    0.0000 C   0  0  0  0  0  0  0  0  0  0  0  0
    7.6887    2.1403    0.0000 O   0  0  0  0  0  0  0  0  0  0  0  0
    6.4219    3.0720    0.0000 O   0  0  0  0  0  0  0  0  0  0  0  0
    9.4491   -0.5817    0.0000 C   0  0  0  0  0  0  0  0  0  0  0  0
    9.4341    2.7162    0.0000 O   0  0  0  0  0  0  0  0  0  0  0  0
   10.8677    1.9047    0.0000 N   0  0  0  0  0  0  0  0  0  0  0  0
   11.5822    1.4957    0.0000 C   0  0  0  0  0  0  0  0  0  0  0  0
   10.8612    2.7287    0.0000 C   0  0  0  0  0  0  0  0  0  0  0  0
    6.9681    2.4868    0.0000 C   0  0  0  0  0  0  0  0  0  0  0  0
  3  8  1  1
 16 17  2  0
  1  6  1  0
  1 18  1  1
  3  9  1  0
 26 28  1  0
 27 29  1  0
 28 30  1  0
 29 31  1  0
 30 32  1  0
 31 33  1  0
 32 34  1  0
 33 35  1  0
 34 36  1  0
 35 37  1  0
 36 38  1  0
 37 38  1  0
  1 19  1  0
 26 39  1  0
 20 21  1  0
 27 40  1  0
 39 40  1  0
  2  3  1  0
 40 41  1  6
  9 10  1  0
 26 42  1  0
  3  4  1  0
 28 43  1  6
  4 11  1  6
 30 44  1  6
  4  5  1  0
 32 45  1  1
 11 12  1  0
 32 46  1  0
 20 25  1  0
 34 47  1  1
 21 22  1  0
 47 48  1  0
 22 23  1  0
 38 49  2  0
 23 24  1  0
 37 50  1  1
 35 19  1  1
 24 25  1  0
 33 51  1  1
  5  6  1  0
 31 52  1  6
 12 13  1  0
 29 53  1  6
 21 52  1  1
 23 54  1  1
 12 14  2  0
 20 55  1  6
  5  7  1  1
 25 56  1  1
 13 15  1  0
 56 57  1  0
  1  2  1  0
 56 58  1  0
 15 16  1  0
 29 59  1  0
M  END

> <chembl_id>
CHEMBL574026

> <chembl_pref_name>
None

$$$$

     RDKit          2D

 61 63  0  0  0  0  0  0  0  0999 V2000
   -0.4003  -13.9525    0.0000 C   0  0  0  0  0  0  0  0  0  0  0  0
   -1.1293  -14.3446    0.0000 C   0  0  0  0  0  0  0  0  0  0  0  0
   -1.1572  -15.1637    0.0000 C   0  0  0  0  0  0  0  0  0  0  0  0
   -0.4527  -15.6067    0.0000 C   0  0  0  0  0  0  0  0  0  0  0  0
    0.2769  -15.2141    0.0000 C   0  0  0  0  0  0  0  0  0  0  0  0
    0.3020  -14.3833    0.0000 O   0  0  0  0  0  0  0  0  0  0  0  0
    0.9738  -15.6485    0.0000 C   0  0  0  0  0  0  0  0  0  0  0  0
   -2.0547  -14.9964    0.0000 C   0  0  0  0  0  0  0  0  0  0  0  0
   -1.3855  -16.0414    0.0000 O   0  0  0  0  0  0  0  0  0  0  0  0
   -2.1724  -16.4614    0.0000 C   0  0  0  0  0  0  0  0  0  0  0  0
   -0.4817  -16.4258    0.0000 O   0  0  0  0  0  0  0  0  0  0  0  0
    0.2199  -16.8606    0.0000 C   0  0  0  0  0  0  0  0  0  0  0  0
    0.1909  -17.6846    0.0000 N   0  0  0  0  0  0  0  0  0  0  0  0
    0.9457  -16.4762    0.0000 O   0  0  0  0  0  0  0  0  0  0  0  0
   -0.5373  -18.0714    0.0000 C   0  0  0  0  0  0  0  0  0  0  0  0
   -0.5665  -18.8955    0.0000 C   0  0  0  0  0  0  0  0  0  0  0  0
   -1.2945  -19.2822    0.0000 C   0  0  0  0  0  0  0  0  0  0  0  0
   -1.3237  -20.1063    0.0000 C   0  0  0  0  0  0  0  0  0  0  0  0
   -2.0519  -20.4931    0.0000 C   0  0  0  0  0  0  0  0  0  0  0  0
    0.3074  -13.5336    0.0000 H   0  0  0  0  0  0  0  0  0  0  0  0
   -0.4098  -13.1238    0.0000 O   0  0  0  0  0  0  0  0  0  0  0  0
    0.7427  -10.3769    0.0000 C   0  0  0  0  0  0  0  0  0  0  0  0
    0.0245  -10.7936    0.0000 C   0  0  0  0  0  0  0  0  0  0  0  0
    0.0297  -11.6181    0.0000 O   0  0  0  0  0  0  0  0  0  0  0  0
    0.7464  -12.0276    0.0000 C   0  0  0  0  0  0  0  0  0  0  0  0
    1.4647  -11.6109    0.0000 C   0  0  0  0  0  0  0  0  0  0  0  0
    1.4613  -10.7796    0.0000 C   0  0  0  0  0  0  0  0  0  0  0  0
   -4.0494   -9.6707    0.0000 N   0  0  0  0  0  0  0  0  0  0  0  0
   -2.6133   -9.5685    0.0000 C   0  0  0  0  0  0  0  0  0  0  0  0
   -4.0318  -10.4434    0.0000 C   0  0  0  0  0  0  0  0  0  0  0  0
   -2.6109  -10.3243    0.0000 C   0  0  0  0  0  0  0  0  0  0  0  0
   -4.8058  -10.7287    0.0000 C   0  0  0  0  0  0  0  0  0  0  0  0
   -1.8114  -10.7074    0.0000 C   0  0  0  0  0  0  0  0  0  0  0  0
   -4.8058  -11.5410    0.0000 C   0  0  0  0  0  0  0  0  0  0  0  0
   -1.7671  -11.6058    0.0000 C   0  0  0  0  0  0  0  0  0  0  0  0
   -4.0311  -11.7809    0.0000 C   0  0  0  0  0  0  0  0  0  0  0  0
   -2.6357  -11.7785    0.0000 C   0  0  0  0  0  0  0  0  0  0  0  0
   -3.9720  -12.5709    0.0000 O   0  0  0  0  0  0  0  0  0  0  0  0
   -2.6236  -12.5739    0.0000 C   0  0  0  0  0  0  0  0  0  0  0  0
   -3.2642  -12.8349    0.0000 C   0  0  0  0  0  0  0  0  0  0  0  0
   -3.7469   -8.9135    0.0000 C   0  0  0  0  0  0  0  0  0  0  0  0
   -2.8541   -8.9135    0.0000 C   0  0  0  0  0  0  0  0  0  0  0  0
   -2.3871   -8.2362    0.0000 C   0  0  0  0  0  0  0  0  0  0  0  0
   -4.8745   -9.0896    0.0000 C   0  0  0  0  0  0  0  0  0  0  0  0
   -4.9763   -9.8063    0.0000 C   0  0  0  0  0  0  0  0  0  0  0  0
   -5.7023  -10.3539    0.0000 O   0  0  0  0  0  0  0  0  0  0  0  0
   -5.7716  -11.2114    0.0000 O   0  0  0  0  0  0  0  0  0  0  0  0
   -5.5276  -12.0992    0.0000 C   0  0  0  0  0  0  0  0  0  0  0  0
   -4.7421  -12.2749    0.0000 C   0  0  0  0  0  0  0  0  0  0  0  0
   -4.7714  -13.3385    0.0000 C   0  0  0  0  0  0  0  0  0  0  0  0
   -3.2509  -13.6594    0.0000 O   0  0  0  0  0  0  0  0  0  0  0  0
   -1.9335  -13.0266    0.0000 C   0  0  0  0  0  0  0  0  0  0  0  0
   -1.1402  -11.9336    0.0000 C   0  0  0  0  0  0  0  0  0  0  0  0
   -1.0108  -10.1286    0.0000 O   0  0  0  0  0  0  0  0  0  0  0  0
   -2.0930   -9.2111    0.0000 O   0  0  0  0  0  0  0  0  0  0  0  0
    0.7504  -12.8521    0.0000 C   0  0  0  0  0  0  0  0  0  0  0  0
    0.7354   -9.5524    0.0000 O   0  0  0  0  0  0  0  0  0  0  0  0
    2.1698  -10.3643    0.0000 N   0  0  0  0  0  0  0  0  0  0  0  0
    2.8846  -10.7734    0.0000 C   0  0  0  0  0  0  0  0  0  0  0  0
    2.1634   -9.5399    0.0000 C   0  0  0  0  0  0  0  0  0  0  0  0
   -1.7271   -9.8355    0.0000 C   0  0  0  0  0  0  0  0  0  0  0  0
  3  8  1  1
 16 17  1  0
  1  6  1  0
 17 18  1  0
  3  9  1  0
 18 19  1  0
  2  3  1  0
 28 30  1  0
 29 31  1  0
 30 32  1  0
 31 33  1  0
 32 34  1  0
 33 35  1  0
 34 36  1  0
 35 37  1  0
 36 38  1  0
 37 39  1  0
 38 40  1  0
 39 40  1  0
  1 20  1  1
 28 41  1  0
  9 10  1  0
 29 42  1  0
 41 42  1  0
  1 21  1  0
 42 43  1  6
 22 23  1  0
 28 44  1  0
  3  4  1  0
 30 45  1  6
  4 11  1  6
 32 46  1  6
  4  5  1  0
 34 47  1  1
 11 12  1  0
 34 48  1  0
  5  6  1  0
 36 49  1  1
 12 13  1  0
 49 50  1  0
 22 27  1  0
 40 51  2  0
 23 24  1  0
 39 52  1  1
 37 21  1  1
 24 25  1  0
 35 53  1  1
 25 26  1  0
 33 54  1  6
 26 27  1  0
 31 55  1  6
 23 54  1  1
 25 56  1  1
 12 14  2  0
 22 57  1  6
  5  7  1  1
 27 58  1  1
 13 15  1  0
 58 59  1  0
  1  2  1  0
 58 60  1  0
 15 16  1  0
 31 61  1  0
M  END

> <chembl_id>
CHEMBL584784

> <chembl_pref_name>
None

$$$$

     RDKit          2D

 62 65  0  0  0  0  0  0  0  0999 V2000
   20.4211  -15.7689    0.0000 C   0  0  0  0  0  0  0  0  0  0  0  0
   19.6924  -16.1606    0.0000 C   0  0  0  0  0  0  0  0  0  0  0  0
   19.6645  -16.9794    0.0000 C   0  0  0  0  0  0  0  0  0  0  0  0
   20.3688  -17.4220    0.0000 C   0  0  0  0  0  0  0  0  0  0  0  0
   21.0980  -17.0296    0.0000 C   0  0  0  0  0  0  0  0  0  0  0  0
   21.1229  -16.1995    0.0000 O   0  0  0  0  0  0  0  0  0  0  0  0
   21.7946  -17.4639    0.0000 C   0  0  0  0  0  0  0  0  0  0  0  0
   18.7675  -16.8122    0.0000 C   0  0  0  0  0  0  0  0  0  0  0  0
   19.4364  -17.8566    0.0000 O   0  0  0  0  0  0  0  0  0  0  0  0
   18.6500  -18.2763    0.0000 C   0  0  0  0  0  0  0  0  0  0  0  0
   20.3397  -18.2408    0.0000 O   0  0  0  0  0  0  0  0  0  0  0  0
   21.0410  -18.6753    0.0000 C   0  0  0  0  0  0  0  0  0  0  0  0
   21.0119  -19.4989    0.0000 N   0  0  0  0  0  0  0  0  0  0  0  0
   21.7665  -18.2911    0.0000 O   0  0  0  0  0  0  0  0  0  0  0  0
   20.2842  -19.8855    0.0000 C   0  0  0  0  0  0  0  0  0  0  0  0
   19.5882  -19.4433    0.0000 C   0  0  0  0  0  0  0  0  0  0  0  0
   18.8627  -19.8265    0.0000 C   0  0  0  0  0  0  0  0  0  0  0  0
   18.8293  -20.6503    0.0000 C   0  0  0  0  0  0  0  0  0  0  0  0
   19.5278  -21.0895    0.0000 C   0  0  0  0  0  0  0  0  0  0  0  0
   20.2596  -20.7048    0.0000 C   0  0  0  0  0  0  0  0  0  0  0  0
   21.1284  -15.3502    0.0000 H   0  0  0  0  0  0  0  0  0  0  0  0
   20.4116  -14.9406    0.0000 O   0  0  0  0  0  0  0  0  0  0  0  0
   21.5635  -12.1950    0.0000 C   0  0  0  0  0  0  0  0  0  0  0  0
   20.8457  -12.6116    0.0000 C   0  0  0  0  0  0  0  0  0  0  0  0
   20.8508  -13.4356    0.0000 O   0  0  0  0  0  0  0  0  0  0  0  0
   21.5673  -13.8450    0.0000 C   0  0  0  0  0  0  0  0  0  0  0  0
   22.2851  -13.4284    0.0000 C   0  0  0  0  0  0  0  0  0  0  0  0
   22.2816  -12.5977    0.0000 C   0  0  0  0  0  0  0  0  0  0  0  0
   16.7739  -11.4892    0.0000 N   0  0  0  0  0  0  0  0  0  0  0  0
   18.2092  -11.3870    0.0000 C   0  0  0  0  0  0  0  0  0  0  0  0
   16.7916  -12.2616    0.0000 C   0  0  0  0  0  0  0  0  0  0  0  0
   18.2116  -12.1425    0.0000 C   0  0  0  0  0  0  0  0  0  0  0  0
   16.0179  -12.5467    0.0000 C   0  0  0  0  0  0  0  0  0  0  0  0
   19.0107  -12.5254    0.0000 C   0  0  0  0  0  0  0  0  0  0  0  0
   16.0179  -13.3585    0.0000 C   0  0  0  0  0  0  0  0  0  0  0  0
   19.0550  -13.4233    0.0000 C   0  0  0  0  0  0  0  0  0  0  0  0
   16.7922  -13.5984    0.0000 C   0  0  0  0  0  0  0  0  0  0  0  0
   18.1868  -13.5961    0.0000 C   0  0  0  0  0  0  0  0  0  0  0  0
   16.8513  -14.3879    0.0000 O   0  0  0  0  0  0  0  0  0  0  0  0
   18.1989  -14.3909    0.0000 C   0  0  0  0  0  0  0  0  0  0  0  0
   17.5587  -14.6519    0.0000 C   0  0  0  0  0  0  0  0  0  0  0  0
   17.0763  -10.7324    0.0000 C   0  0  0  0  0  0  0  0  0  0  0  0
   17.9687  -10.7324    0.0000 C   0  0  0  0  0  0  0  0  0  0  0  0
   18.4353  -10.0555    0.0000 C   0  0  0  0  0  0  0  0  0  0  0  0
   15.9494  -10.9084    0.0000 C   0  0  0  0  0  0  0  0  0  0  0  0
   15.8476  -11.6247    0.0000 C   0  0  0  0  0  0  0  0  0  0  0  0
   15.1220  -12.1721    0.0000 O   0  0  0  0  0  0  0  0  0  0  0  0
   15.0527  -13.0291    0.0000 O   0  0  0  0  0  0  0  0  0  0  0  0
   15.2965  -13.9166    0.0000 C   0  0  0  0  0  0  0  0  0  0  0  0
   16.0816  -14.0921    0.0000 C   0  0  0  0  0  0  0  0  0  0  0  0
   16.0523  -15.1551    0.0000 C   0  0  0  0  0  0  0  0  0  0  0  0
   17.5721  -15.4758    0.0000 O   0  0  0  0  0  0  0  0  0  0  0  0
   18.8888  -14.8433    0.0000 C   0  0  0  0  0  0  0  0  0  0  0  0
   19.6816  -13.7509    0.0000 C   0  0  0  0  0  0  0  0  0  0  0  0
   19.8108  -11.9469    0.0000 O   0  0  0  0  0  0  0  0  0  0  0  0
   18.6903  -10.9957    0.0000 O   0  0  0  0  0  0  0  0  0  0  0  0
   21.5713  -14.6690    0.0000 C   0  0  0  0  0  0  0  0  0  0  0  0
   21.5563  -11.3710    0.0000 O   0  0  0  0  0  0  0  0  0  0  0  0
   22.9898  -12.1825    0.0000 N   0  0  0  0  0  0  0  0  0  0  0  0
   23.7043  -12.5915    0.0000 C   0  0  0  0  0  0  0  0  0  0  0  0
   22.9834  -11.3585    0.0000 C   0  0  0  0  0  0  0  0  0  0  0  0
   19.0560  -11.4736    0.0000 C   0  0  0  0  0  0  0  0  0  0  0  0
  1  2  1  0
  3  8  1  1
  1  6  1  0
  3  9  1  0
  2  3  1  0
 15 20  1  0
 16 17  1  0
 17 18  1  0
 18 19  1  0
 29 31  1  0
 30 32  1  0
 31 33  1  0
 32 34  1  0
 33 35  1  0
 34 36  1  0
 35 37  1  0
 36 38  1  0
 37 39  1  0
 38 40  1  0
 39 41  1  0
 40 41  1  0
 19 20  1  0
 29 42  1  0
  9 10  1  0
 30 43  1  0
 42 43  1  0
  1 21  1  1
 43 44  1  6
  3  4  1  0
 29 45  1  0
  1 22  1  0
 31 46  1  6
 23 24  1  0
 33 47  1  6
  4 11  1  6
 35 48  1  1
  4  5  1  0
 35 49  1  0
 11 12  1  0
 37 50  1  1
  5  6  1  0
 50 51  1  0
 12 13  1  0
 41 52  2  0
 40 53  1  1
 38 22  1  1
 23 28  1  0
 36 54  1  1
 24 25  1  0
 34 55  1  6
 25 26  1  0
 32 56  1  6
 24 55  1  1
 26 27  1  0
 26 57  1  1
 27 28  1  0
 23 58  1  6
 12 14  2  0
 28 59  1  1
  5  7  1  1
 59 60  1  0
 13 15  1  0
 59 61  1  0
 15 16  1  0
 32 62  1  0
M  END

> <chembl_id>
CHEMBL584785

> <chembl_pref_name>
None

$$$$

     RDKit          2D

 57 59  0  0  0  0  0  0  0  0999 V2000
    2.5391   -4.3712    0.0000 C   0  0  0  0  0  0  0  0  0  0  0  0
    1.1543   -4.3522    0.0000 C   0  0  0  0  0  0  0  0  0  0  0  0
   -0.2744   -4.3522    0.0000 C   0  0  0  0  0  0  0  0  0  0  0  0
   -0.9951   -2.2005    0.0000 C   0  0  0  0  0  0  0  0  0  0  0  0
    0.4441   -4.7620    0.0000 C   0  0  0  0  0  0  0  0  0  0  0  0
    3.2577   -4.7871    0.0000 C   0  0  0  0  0  0  0  0  0  0  0  0
    1.8603   -3.1146    0.0000 C   0  0  0  0  0  0  0  0  0  0  0  0
   -0.4635   -1.6669    0.0000 C   0  0  0  0  0  0  0  0  0  0  0  0
    1.1543   -3.5243    0.0000 C   0  0  0  0  0  0  0  0  0  0  0  0
   -0.0833   -0.3263    0.0000 N   0  0  0  0  0  0  0  0  0  0  0  0
   -0.2744   -3.5306    0.0000 O   0  0  0  0  0  0  0  0  0  0  0  0
    2.5622   -3.5474    0.0000 O   0  0  0  0  0  0  0  0  0  0  0  0
    0.6794   -7.3043    0.0000 C   0  0  0  0  0  0  0  0  0  0  0  0
    3.2514   -5.6108    0.0000 C   0  0  0  0  0  0  0  0  0  0  0  0
    1.8499   -2.2280    0.0000 C   0  0  0  0  0  0  0  0  0  0  0  0
    0.7173   -5.8714    0.0000 C   0  0  0  0  0  0  0  0  0  0  0  0
   -0.4972   -0.9188    0.0000 C   0  0  0  0  0  0  0  0  0  0  0  0
    1.1123   -6.6004    0.0000 C   0  0  0  0  0  0  0  0  0  0  0  0
    1.8183   -4.7849    0.0000 O   0  0  0  0  0  0  0  0  0  0  0  0
   -0.1148   -5.8461    0.0000 O   0  0  0  0  0  0  0  0  0  0  0  0
   -0.9888   -3.1167    0.0000 C   0  0  0  0  0  0  0  0  0  0  0  0
   -0.1420   -7.2813    0.0000 C   0  0  0  0  0  0  0  0  0  0  0  0
    1.1480   -5.1737    0.0000 O   0  0  0  0  0  0  0  0  0  0  0  0
   -0.5392   -6.5563    0.0000 C   0  0  0  0  0  0  0  0  0  0  0  0
    2.5370   -6.0248    0.0000 C   0  0  0  0  0  0  0  0  0  0  0  0
    0.8161   -0.3263    0.0000 C   0  0  0  0  0  0  0  0  0  0  0  0
    3.9615   -6.0248    0.0000 N   0  0  0  0  0  0  0  0  0  0  0  0
    1.1901   -1.6059    0.0000 C   0  0  0  0  0  0  0  0  0  0  0  0
   -0.9888   -4.7620    0.0000 O   0  0  0  0  0  0  0  0  0  0  0  0
    1.8246   -5.6087    0.0000 C   0  0  0  0  0  0  0  0  0  0  0  0
    1.1901   -0.8264    0.0000 C   0  0  0  0  0  0  0  0  0  0  0  0
    0.2404   -7.9999    0.0000 O   0  0  0  0  0  0  0  0  0  0  0  0
   -1.7095   -2.6060    0.0000 C   0  0  0  0  0  0  0  0  0  0  0  0
   -0.2765   -5.1674    0.0000 C   0  0  0  0  0  0  0  0  0  0  0  0
    0.4357   -3.1083    0.0000 C   0  0  0  0  0  0  0  0  0  0  0  0
    1.3939   -7.3043    0.0000 C   0  0  0  0  0  0  0  0  0  0  0  0
    2.6651   -2.4464    0.0000 C   0  0  0  0  0  0  0  0  0  0  0  0
   -1.2116   -0.7087    0.0000 C   0  0  0  0  0  0  0  0  0  0  0  0
   -1.7011   -3.5306    0.0000 C   0  0  0  0  0  0  0  0  0  0  0  0
   -1.3629   -6.5333    0.0000 C   0  0  0  0  0  0  0  0  0  0  0  0
    4.6760   -5.6171    0.0000 C   0  0  0  0  0  0  0  0  0  0  0  0
    3.9615   -6.8484    0.0000 C   0  0  0  0  0  0  0  0  0  0  0  0
    1.9612   -0.3095    0.0000 C   0  0  0  0  0  0  0  0  0  0  0  0
    0.6312   -8.7290    0.0000 C   0  0  0  0  0  0  0  0  0  0  0  0
   -2.4135   -3.1230    0.0000 C   0  0  0  0  0  0  0  0  0  0  0  0
    1.8520   -3.9383    0.0000 H   0  0  0  0  0  0  0  0  0  0  0  0
    0.2992   -5.1569    0.0000 H   0  0  0  0  0  0  0  0  0  0  0  0
    1.6073   -6.3954    0.0000 C   0  0  0  0  0  0  0  0  0  0  0  0
   -1.7095   -1.7866    0.0000 O   0  0  0  0  0  0  0  0  0  0  0  0
    3.9700   -4.3733    0.0000 O   0  0  0  0  0  0  0  0  0  0  0  0
    0.2404   -1.9379    0.0000 O   0  0  0  0  0  0  0  0  0  0  0  0
    2.6063   -1.7845    0.0000 O   0  0  0  0  0  0  0  0  0  0  0  0
   -0.5812   -7.9746    0.0000 O   0  0  0  0  0  0  0  0  0  0  0  0
    2.6005   -0.9024    0.0000 C   0  0  0  0  0  0  0  0  0  0  0  0
   -0.4911    0.4560    0.0000 C   0  0  0  0  0  0  0  0  0  0  0  0
   -0.0175    1.2004    0.0000 C   0  0  0  0  0  0  0  0  0  0  0  0
   -0.4254    1.9826    0.0000 C   0  0  0  0  0  0  0  0  0  0  0  0
 10 26  1  0
 11  3  1  0
  1 12  1  1
 13 18  1  0
 14  6  1  0
 15  7  1  0
 16 23  1  0
 17 10  1  0
 18 16  1  0
 19  1  1  0
 20 16  1  0
 21 11  1  0
 22 24  1  0
  2 23  1  6
 24 20  1  0
 25 30  1  0
 26 31  1  0
 14 27  1  1
 28 15  1  0
 29  3  2  0
 30 19  1  0
 31 28  1  0
 13 32  1  1
 33  4  1  0
  5 34  1  1
  9 35  1  6
 36 13  1  0
 37 15  1  0
 17 38  1  1
 21 39  1  6
 24 40  1  6
 41 27  1  0
 42 27  1  0
 31 43  1  6
 44 32  1  0
 45 39  1  0
  7 46  1  1
 16 47  1  6
 14 25  1  0
  8  4  1  0
 13 22  1  0
 30 48  1  1
  2  9  1  0
  3  5  1  0
  4 21  1  0
  5  2  1  0
  6  1  1  0
  4 49  1  1
  8 51  1  1
 15 52  1  1
  6 50  1  6
 22 53  1  1
 52 54  1  0
  7 12  1  0
 10 55  1  0
  8 17  1  0
 55 56  1  0
  9  7  1  0
 56 57  1  0
M  END

> <chembl_id>
CHEMBL1774295

> <chembl_pref_name>
None

$$$$

     RDKit          2D

 57 59  0  0  0  0  0  0  0  0999 V2000
    2.5391   -4.3712    0.0000 C   0  0  0  0  0  0  0  0  0  0  0  0
    1.1543   -4.3522    0.0000 C   0  0  0  0  0  0  0  0  0  0  0  0
   -0.2744   -4.3522    0.0000 C   0  0  0  0  0  0  0  0  0  0  0  0
   -0.9951   -2.2005    0.0000 C   0  0  0  0  0  0  0  0  0  0  0  0
    0.4441   -4.7620    0.0000 C   0  0  0  0  0  0  0  0  0  0  0  0
    3.2577   -4.7871    0.0000 C   0  0  0  0  0  0  0  0  0  0  0  0
    1.8603   -3.1146    0.0000 C   0  0  0  0  0  0  0  0  0  0  0  0
   -0.4635   -1.6669    0.0000 C   0  0  0  0  0  0  0  0  0  0  0  0
    1.1543   -3.5243    0.0000 C   0  0  0  0  0  0  0  0  0  0  0  0
   -0.0833   -0.3263    0.0000 N   0  0  0  0  0  0  0  0  0  0  0  0
   -0.2744   -3.5306    0.0000 O   0  0  0  0  0  0  0  0  0  0  0  0
    2.5622   -3.5474    0.0000 O   0  0  0  0  0  0  0  0  0  0  0  0
    0.6794   -7.3043    0.0000 C   0  0  0  0  0  0  0  0  0  0  0  0
    3.2514   -5.6108    0.0000 C   0  0  0  0  0  0  0  0  0  0  0  0
    1.8499   -2.2280    0.0000 C   0  0  0  0  0  0  0  0  0  0  0  0
    0.7173   -5.8714    0.0000 C   0  0  0  0  0  0  0  0  0  0  0  0
   -0.4972   -0.9188    0.0000 C   0  0  0  0  0  0  0  0  0  0  0  0
    1.1123   -6.6004    0.0000 C   0  0  0  0  0  0  0  0  0  0  0  0
    1.8183   -4.7849    0.0000 O   0  0  0  0  0  0  0  0  0  0  0  0
   -0.1148   -5.8461    0.0000 O   0  0  0  0  0  0  0  0  0  0  0  0
   -0.9888   -3.1167    0.0000 C   0  0  0  0  0  0  0  0  0  0  0  0
   -0.1420   -7.2813    0.0000 C   0  0  0  0  0  0  0  0  0  0  0  0
    1.1480   -5.1737    0.0000 O   0  0  0  0  0  0  0  0  0  0  0  0
   -0.5392   -6.5563    0.0000 C   0  0  0  0  0  0  0  0  0  0  0  0
    2.5370   -6.0248    0.0000 C   0  0  0  0  0  0  0  0  0  0  0  0
    0.8161   -0.3263    0.0000 C   0  0  0  0  0  0  0  0  0  0  0  0
    3.9615   -6.0248    0.0000 N   0  0  0  0  0  0  0  0  0  0  0  0
    1.1901   -1.6059    0.0000 C   0  0  0  0  0  0  0  0  0  0  0  0
   -0.9888   -4.7620    0.0000 O   0  0  0  0  0  0  0  0  0  0  0  0
    1.8246   -5.6087    0.0000 C   0  0  0  0  0  0  0  0  0  0  0  0
    1.1901   -0.8264    0.0000 C   0  0  0  0  0  0  0  0  0  0  0  0
    0.2404   -7.9999    0.0000 O   0  0  0  0  0  0  0  0  0  0  0  0
   -1.7095   -2.6060    0.0000 C   0  0  0  0  0  0  0  0  0  0  0  0
   -0.2765   -5.1674    0.0000 C   0  0  0  0  0  0  0  0  0  0  0  0
    0.4357   -3.1083    0.0000 C   0  0  0  0  0  0  0  0  0  0  0  0
    1.3939   -7.3043    0.0000 C   0  0  0  0  0  0  0  0  0  0  0  0
    2.6651   -2.4464    0.0000 C   0  0  0  0  0  0  0  0  0  0  0  0
   -1.2116   -0.7087    0.0000 C   0  0  0  0  0  0  0  0  0  0  0  0
   -1.7011   -3.5306    0.0000 C   0  0  0  0  0  0  0  0  0  0  0  0
   -1.3629   -6.5333    0.0000 C   0  0  0  0  0  0  0  0  0  0  0  0
    4.6760   -5.6171    0.0000 C   0  0  0  0  0  0  0  0  0  0  0  0
    3.9615   -6.8484    0.0000 C   0  0  0  0  0  0  0  0  0  0  0  0
    1.9612   -0.3095    0.0000 C   0  0  0  0  0  0  0  0  0  0  0  0
    0.6312   -8.7290    0.0000 C   0  0  0  0  0  0  0  0  0  0  0  0
   -2.4135   -3.1230    0.0000 C   0  0  0  0  0  0  0  0  0  0  0  0
    1.8520   -3.9383    0.0000 H   0  0  0  0  0  0  0  0  0  0  0  0
    0.2992   -5.1569    0.0000 H   0  0  0  0  0  0  0  0  0  0  0  0
    1.6073   -6.3954    0.0000 C   0  0  0  0  0  0  0  0  0  0  0  0
   -1.7095   -1.7866    0.0000 O   0  0  0  0  0  0  0  0  0  0  0  0
    3.9700   -4.3733    0.0000 O   0  0  0  0  0  0  0  0  0  0  0  0
    0.2404   -1.9379    0.0000 O   0  0  0  0  0  0  0  0  0  0  0  0
    2.6063   -1.7845    0.0000 O   0  0  0  0  0  0  0  0  0  0  0  0
   -0.5812   -7.9746    0.0000 O   0  0  0  0  0  0  0  0  0  0  0  0
    2.6005   -0.9024    0.0000 C   0  0  0  0  0  0  0  0  0  0  0  0
   -0.4911    0.4560    0.0000 C   0  0  0  0  0  0  0  0  0  0  0  0
   -0.0175    1.2004    0.0000 C   0  0  0  0  0  0  0  0  0  0  0  0
   -0.4254    1.9826    0.0000 C   0  0  0  0  0  0  0  0  0  0  0  0
 10 26  1  0
 11  3  1  0
  1 12  1  1
 13 18  1  0
 14  6  1  0
 15  7  1  0
 16 23  1  0
 17 10  1  0
 18 16  1  0
 19  1  1  0
 20 16  1  0
 21 11  1  0
 22 24  1  0
  2 23  1  6
 24 20  1  0
 25 30  1  0
 26 31  1  0
 14 27  1  1
 28 15  1  0
 29  3  2  0
 30 19  1  0
 31 28  1  0
 13 32  1  1
 33  4  1  0
  5 34  1  1
  9 35  1  6
 36 13  1  0
 37 15  1  0
 17 38  1  1
 21 39  1  6
 24 40  1  6
 41 27  1  0
 42 27  1  0
 31 43  1  6
 44 32  1  0
 45 39  1  0
  7 46  1  1
 16 47  1  6
 14 25  1  0
  8  4  1  0
 13 22  1  0
 30 48  1  1
  2  9  1  0
  3  5  1  0
  4 21  1  0
  5  2  1  0
  6  1  1  0
  4 49  1  1
  8 51  1  1
 15 52  1  1
  6 50  1  6
 22 53  1  1
 52 54  1  0
  7 12  1  0
 10 55  1  0
  8 17  1  0
 55 56  1  0
  9  7  1  0
 56 57  2  0
M  END

> <chembl_id>
CHEMBL1774296

> <chembl_pref_name>
None

$$$$

     RDKit          2D

 56 58  0  0  0  0  0  0  0  0999 V2000
    2.5404   -4.3735    0.0000 C   0  0  0  0  0  0  0  0  0  0  0  0
    1.1550   -4.3545    0.0000 C   0  0  0  0  0  0  0  0  0  0  0  0
   -0.2745   -4.3545    0.0000 C   0  0  0  0  0  0  0  0  0  0  0  0
   -0.9957   -2.2017    0.0000 C   0  0  0  0  0  0  0  0  0  0  0  0
    0.4444   -4.7645    0.0000 C   0  0  0  0  0  0  0  0  0  0  0  0
    3.2594   -4.7897    0.0000 C   0  0  0  0  0  0  0  0  0  0  0  0
    1.8613   -3.1162    0.0000 C   0  0  0  0  0  0  0  0  0  0  0  0
   -0.4638   -1.6678    0.0000 C   0  0  0  0  0  0  0  0  0  0  0  0
    1.1550   -3.5262    0.0000 C   0  0  0  0  0  0  0  0  0  0  0  0
   -0.0833   -0.3265    0.0000 N   0  0  0  0  0  0  0  0  0  0  0  0
   -0.2745   -3.5325    0.0000 O   0  0  0  0  0  0  0  0  0  0  0  0
    2.5635   -3.5493    0.0000 O   0  0  0  0  0  0  0  0  0  0  0  0
    0.6798   -7.3082    0.0000 C   0  0  0  0  0  0  0  0  0  0  0  0
    3.2531   -5.6138    0.0000 C   0  0  0  0  0  0  0  0  0  0  0  0
    1.8508   -2.2292    0.0000 C   0  0  0  0  0  0  0  0  0  0  0  0
    0.7177   -5.8745    0.0000 C   0  0  0  0  0  0  0  0  0  0  0  0
   -0.4974   -0.9193    0.0000 C   0  0  0  0  0  0  0  0  0  0  0  0
    1.1129   -6.6040    0.0000 C   0  0  0  0  0  0  0  0  0  0  0  0
    1.8193   -4.7875    0.0000 O   0  0  0  0  0  0  0  0  0  0  0  0
   -0.1148   -5.8492    0.0000 O   0  0  0  0  0  0  0  0  0  0  0  0
   -0.9894   -3.1184    0.0000 C   0  0  0  0  0  0  0  0  0  0  0  0
   -0.1421   -7.2852    0.0000 C   0  0  0  0  0  0  0  0  0  0  0  0
    1.1487   -5.1765    0.0000 O   0  0  0  0  0  0  0  0  0  0  0  0
   -0.5395   -6.5598    0.0000 C   0  0  0  0  0  0  0  0  0  0  0  0
    2.5383   -6.0280    0.0000 C   0  0  0  0  0  0  0  0  0  0  0  0
    0.8165   -0.3265    0.0000 C   0  0  0  0  0  0  0  0  0  0  0  0
    3.9636   -6.0280    0.0000 N   0  0  0  0  0  0  0  0  0  0  0  0
    1.1907   -1.6067    0.0000 C   0  0  0  0  0  0  0  0  0  0  0  0
   -0.9894   -4.7645    0.0000 O   0  0  0  0  0  0  0  0  0  0  0  0
    1.8256   -5.6117    0.0000 C   0  0  0  0  0  0  0  0  0  0  0  0
    1.1907   -0.8268    0.0000 C   0  0  0  0  0  0  0  0  0  0  0  0
    0.2405   -8.0041    0.0000 O   0  0  0  0  0  0  0  0  0  0  0  0
   -1.7104   -2.6074    0.0000 C   0  0  0  0  0  0  0  0  0  0  0  0
   -0.2767   -5.1702    0.0000 C   0  0  0  0  0  0  0  0  0  0  0  0
    0.4360   -3.1099    0.0000 C   0  0  0  0  0  0  0  0  0  0  0  0
    1.3947   -7.3082    0.0000 C   0  0  0  0  0  0  0  0  0  0  0  0
    2.6665   -2.4477    0.0000 C   0  0  0  0  0  0  0  0  0  0  0  0
   -1.2122   -0.7091    0.0000 C   0  0  0  0  0  0  0  0  0  0  0  0
   -1.7021   -3.5325    0.0000 C   0  0  0  0  0  0  0  0  0  0  0  0
   -1.3636   -6.5368    0.0000 C   0  0  0  0  0  0  0  0  0  0  0  0
    4.6785   -5.6201    0.0000 C   0  0  0  0  0  0  0  0  0  0  0  0
    3.9636   -6.8521    0.0000 C   0  0  0  0  0  0  0  0  0  0  0  0
    1.9623   -0.3097    0.0000 C   0  0  0  0  0  0  0  0  0  0  0  0
    0.6315   -8.7337    0.0000 C   0  0  0  0  0  0  0  0  0  0  0  0
   -2.4148   -3.1247    0.0000 C   0  0  0  0  0  0  0  0  0  0  0  0
    1.8529   -3.9404    0.0000 H   0  0  0  0  0  0  0  0  0  0  0  0
    0.2994   -5.1596    0.0000 H   0  0  0  0  0  0  0  0  0  0  0  0
    1.6081   -6.3988    0.0000 C   0  0  0  0  0  0  0  0  0  0  0  0
   -1.7104   -1.7876    0.0000 O   0  0  0  0  0  0  0  0  0  0  0  0
    3.9721   -4.3756    0.0000 O   0  0  0  0  0  0  0  0  0  0  0  0
    0.2405   -1.9390    0.0000 O   0  0  0  0  0  0  0  0  0  0  0  0
    2.6077   -1.7855    0.0000 O   0  0  0  0  0  0  0  0  0  0  0  0
   -0.5815   -7.9789    0.0000 O   0  0  0  0  0  0  0  0  0  0  0  0
    2.6019   -0.9028    0.0000 C   0  0  0  0  0  0  0  0  0  0  0  0
    3.3633   -0.4565    0.0000 C   0  0  0  0  0  0  0  0  0  0  0  0
   -0.4913    0.4563    0.0000 C   0  0  0  0  0  0  0  0  0  0  0  0
  9  7  1  0
 10 26  1  0
 11  3  1  0
  1 12  1  1
 13 18  1  0
 14  6  1  0
 15  7  1  0
 16 23  1  0
 17 10  1  0
 18 16  1  0
 19  1  1  0
 20 16  1  0
 21 11  1  0
 22 24  1  0
  2 23  1  6
 24 20  1  0
 25 30  1  0
 26 31  1  0
 14 27  1  1
 28 15  1  0
 29  3  2  0
 30 19  1  0
 31 28  1  0
 13 32  1  1
 33  4  1  0
  5 34  1  1
  9 35  1  6
 36 13  1  0
 37 15  1  0
 17 38  1  1
 21 39  1  6
 24 40  1  6
 41 27  1  0
 42 27  1  0
 31 43  1  6
 44 32  1  0
 45 39  1  0
  7 46  1  1
 16 47  1  6
 14 25  1  0
  8  4  1  0
 13 22  1  0
 30 48  1  1
  2  9  1  0
  3  5  1  0
  4 21  1  0
  5  2  1  0
  6  1  1  0
  4 49  1  1
  8 51  1  1
 15 52  1  1
  6 50  1  6
 22 53  1  1
 52 54  1  0
  7 12  1  0
 54 55  2  0
  8 17  1  0
 10 56  1  0
M  END

> <chembl_id>
CHEMBL1774301

> <chembl_pref_name>
None

$$$$

     RDKit          2D

 58 60  0  0  0  0  0  0  0  0999 V2000
    2.5391   -4.3712    0.0000 C   0  0  0  0  0  0  0  0  0  0  0  0
    1.1543   -4.3522    0.0000 C   0  0  0  0  0  0  0  0  0  0  0  0
   -0.2744   -4.3522    0.0000 C   0  0  0  0  0  0  0  0  0  0  0  0
   -0.9951   -2.2005    0.0000 C   0  0  0  0  0  0  0  0  0  0  0  0
    0.4441   -4.7620    0.0000 C   0  0  0  0  0  0  0  0  0  0  0  0
    3.2577   -4.7871    0.0000 C   0  0  0  0  0  0  0  0  0  0  0  0
    1.8603   -3.1146    0.0000 C   0  0  0  0  0  0  0  0  0  0  0  0
   -0.4635   -1.6669    0.0000 C   0  0  0  0  0  0  0  0  0  0  0  0
    1.1543   -3.5243    0.0000 C   0  0  0  0  0  0  0  0  0  0  0  0
   -0.0833   -0.3263    0.0000 N   0  0  0  0  0  0  0  0  0  0  0  0
   -0.2744   -3.5306    0.0000 O   0  0  0  0  0  0  0  0  0  0  0  0
    2.5622   -3.5474    0.0000 O   0  0  0  0  0  0  0  0  0  0  0  0
    0.6794   -7.3043    0.0000 C   0  0  0  0  0  0  0  0  0  0  0  0
    3.2514   -5.6108    0.0000 C   0  0  0  0  0  0  0  0  0  0  0  0
    1.8499   -2.2280    0.0000 C   0  0  0  0  0  0  0  0  0  0  0  0
    0.7173   -5.8714    0.0000 C   0  0  0  0  0  0  0  0  0  0  0  0
   -0.4972   -0.9188    0.0000 C   0  0  0  0  0  0  0  0  0  0  0  0
    1.1123   -6.6004    0.0000 C   0  0  0  0  0  0  0  0  0  0  0  0
    1.8183   -4.7849    0.0000 O   0  0  0  0  0  0  0  0  0  0  0  0
   -0.1148   -5.8461    0.0000 O   0  0  0  0  0  0  0  0  0  0  0  0
   -0.9888   -3.1167    0.0000 C   0  0  0  0  0  0  0  0  0  0  0  0
   -0.1420   -7.2813    0.0000 C   0  0  0  0  0  0  0  0  0  0  0  0
    1.1480   -5.1737    0.0000 O   0  0  0  0  0  0  0  0  0  0  0  0
   -0.5392   -6.5563    0.0000 C   0  0  0  0  0  0  0  0  0  0  0  0
    2.5370   -6.0248    0.0000 C   0  0  0  0  0  0  0  0  0  0  0  0
    0.8161   -0.3263    0.0000 C   0  0  0  0  0  0  0  0  0  0  0  0
    3.9615   -6.0248    0.0000 N   0  0  0  0  0  0  0  0  0  0  0  0
    1.1901   -1.6059    0.0000 C   0  0  0  0  0  0  0  0  0  0  0  0
   -0.9888   -4.7620    0.0000 O   0  0  0  0  0  0  0  0  0  0  0  0
    1.8246   -5.6087    0.0000 C   0  0  0  0  0  0  0  0  0  0  0  0
    1.1901   -0.8264    0.0000 C   0  0  0  0  0  0  0  0  0  0  0  0
    0.2404   -7.9999    0.0000 O   0  0  0  0  0  0  0  0  0  0  0  0
   -1.7095   -2.6060    0.0000 C   0  0  0  0  0  0  0  0  0  0  0  0
   -0.2765   -5.1674    0.0000 C   0  0  0  0  0  0  0  0  0  0  0  0
    0.4357   -3.1083    0.0000 C   0  0  0  0  0  0  0  0  0  0  0  0
    1.3939   -7.3043    0.0000 C   0  0  0  0  0  0  0  0  0  0  0  0
    2.6651   -2.4464    0.0000 C   0  0  0  0  0  0  0  0  0  0  0  0
   -1.2116   -0.7087    0.0000 C   0  0  0  0  0  0  0  0  0  0  0  0
   -1.7011   -3.5306    0.0000 C   0  0  0  0  0  0  0  0  0  0  0  0
   -1.3629   -6.5333    0.0000 C   0  0  0  0  0  0  0  0  0  0  0  0
    4.6760   -5.6171    0.0000 C   0  0  0  0  0  0  0  0  0  0  0  0
    3.9615   -6.8484    0.0000 C   0  0  0  0  0  0  0  0  0  0  0  0
    1.9612   -0.3095    0.0000 C   0  0  0  0  0  0  0  0  0  0  0  0
    0.6312   -8.7290    0.0000 C   0  0  0  0  0  0  0  0  0  0  0  0
   -2.4135   -3.1230    0.0000 C   0  0  0  0  0  0  0  0  0  0  0  0
    1.8520   -3.9383    0.0000 H   0  0  0  0  0  0  0  0  0  0  0  0
    0.2992   -5.1569    0.0000 H   0  0  0  0  0  0  0  0  0  0  0  0
    1.6073   -6.3954    0.0000 C   0  0  0  0  0  0  0  0  0  0  0  0
   -1.7095   -1.7866    0.0000 O   0  0  0  0  0  0  0  0  0  0  0  0
    3.9700   -4.3733    0.0000 O   0  0  0  0  0  0  0  0  0  0  0  0
    0.2404   -1.9379    0.0000 O   0  0  0  0  0  0  0  0  0  0  0  0
    2.6063   -1.7845    0.0000 O   0  0  0  0  0  0  0  0  0  0  0  0
   -0.5812   -7.9746    0.0000 O   0  0  0  0  0  0  0  0  0  0  0  0
    2.6005   -0.9024    0.0000 C   0  0  0  0  0  0  0  0  0  0  0  0
    3.3615   -0.4562    0.0000 C   0  0  0  0  0  0  0  0  0  0  0  0
   -0.4911    0.4560    0.0000 C   0  0  0  0  0  0  0  0  0  0  0  0
   -0.0175    1.2004    0.0000 C   0  0  0  0  0  0  0  0  0  0  0  0
   -0.4254    1.9826    0.0000 C   0  0  0  0  0  0  0  0  0  0  0  0
 11  3  1  0
  1 12  1  1
 13 18  1  0
 14  6  1  0
 15  7  1  0
 16 23  1  0
 17 10  1  0
 18 16  1  0
 19  1  1  0
 20 16  1  0
 21 11  1  0
 22 24  1  0
  2 23  1  6
 24 20  1  0
 25 30  1  0
 26 31  1  0
 14 27  1  1
 28 15  1  0
 29  3  2  0
 30 19  1  0
 31 28  1  0
 13 32  1  1
 33  4  1  0
  5 34  1  1
  9 35  1  6
 36 13  1  0
 37 15  1  0
 17 38  1  1
 21 39  1  6
 24 40  1  6
 41 27  1  0
 42 27  1  0
 31 43  1  6
 44 32  1  0
 45 39  1  0
  7 46  1  1
 16 47  1  6
 14 25  1  0
  8  4  1  0
 13 22  1  0
 30 48  1  1
  2  9  1  0
  3  5  1  0
  4 21  1  0
  5  2  1  0
  6  1  1  0
  4 49  1  1
  8 51  1  1
 15 52  1  1
  6 50  1  6
 22 53  1  1
 52 54  1  0
  7 12  1  0
 54 55  2  0
  8 17  1  0
 10 56  1  0
  9  7  1  0
 56 57  1  0
 10 26  1  0
 57 58  1  0
M  END

> <chembl_id>
CHEMBL1774302

> <chembl_pref_name>
None

$$$$
