
     RDKit          2D

 35 38  0  0  0  0  0  0  0  0999 V2000
   10.1292   -5.8000    0.0000 C   0  0  0  0  0  0  0  0  0  0  0  0
   12.2667   -7.0375    0.0000 N   0  0  0  0  0  0  0  0  0  0  0  0
   17.9792   -8.6875    0.0000 C   0  0  0  0  0  0  0  0  0  0  0  0
   17.2667   -8.2750    0.0000 C   0  0  0  0  0  0  0  0  0  0  0  0
   10.8458   -6.2125    0.0000 C   0  0  0  0  0  0  0  0  0  0  0  0
   15.8417   -7.4500    0.0000 C   0  0  0  0  0  0  0  0  0  0  0  0
    9.7167   -6.5125    0.0000 C   0  0  0  0  0  0  0  0  0  0  0  0
    9.4083   -5.3875    0.0000 C   0  0  0  0  0  0  0  0  0  0  0  0
   17.2583   -7.4500    0.0000 C   0  0  0  0  0  0  0  0  0  0  0  0
   16.5458   -8.6875    0.0000 C   0  0  0  0  0  0  0  0  0  0  0  0
   16.5458   -7.0375    0.0000 C   0  0  0  0  0  0  0  0  0  0  0  0
   15.8333   -8.2750    0.0000 C   0  0  0  0  0  0  0  0  0  0  0  0
   10.8458   -7.0375    0.0000 C   0  0  0  0  0  0  0  0  0  0  0  0
   11.5542   -5.7958    0.0000 C   0  0  0  0  0  0  0  0  0  0  0  0
   12.2667   -6.2125    0.0000 C   0  0  0  0  0  0  0  0  0  0  0  0
   11.5542   -7.4458    0.0000 C   0  0  0  0  0  0  0  0  0  0  0  0
   10.5417   -5.0875    0.0000 O   0  0  0  0  0  0  0  0  0  0  0  0
   15.1208   -7.0375    0.0000 C   0  0  0  0  0  0  0  0  0  0  0  0
   12.9833   -7.4500    0.0000 C   0  0  0  0  0  0  0  0  0  0  0  0
   15.1208   -6.2125    0.0000 O   0  0  0  0  0  0  0  0  0  0  0  0
   13.6958   -7.0375    0.0000 C   0  0  0  0  0  0  0  0  0  0  0  0
   18.6917   -9.1000    0.0000 C   0  0  0  0  0  0  0  0  0  0  0  0
   17.5667   -9.4083    0.0000 C   0  0  0  0  0  0  0  0  0  0  0  0
   18.3958   -7.9750    0.0000 C   0  0  0  0  0  0  0  0  0  0  0  0
   14.4083   -7.4500    0.0000 C   0  0  0  0  0  0  0  0  0  0  0  0
    8.6958   -5.8000    0.0000 C   0  0  0  0  0  0  0  0  0  0  0  0
    9.4083   -4.5500    0.0000 C   0  0  0  0  0  0  0  0  0  0  0  0
    8.8917   -6.5125    0.0000 C   0  0  0  0  0  0  0  0  0  0  0  0
   10.1333   -7.2250    0.0000 C   0  0  0  0  0  0  0  0  0  0  0  0
    7.9708   -5.3833    0.0000 C   0  0  0  0  0  0  0  0  0  0  0  0
    9.7167   -7.9458    0.0000 C   0  0  0  0  0  0  0  0  0  0  0  0
    8.4792   -7.2250    0.0000 C   0  0  0  0  0  0  0  0  0  0  0  0
    8.6958   -4.1375    0.0000 C   0  0  0  0  0  0  0  0  0  0  0  0
    8.8833   -7.9458    0.0000 C   0  0  0  0  0  0  0  0  0  0  0  0
    7.9792   -4.5500    0.0000 C   0  0  0  0  0  0  0  0  0  0  0  0
  2 15  1  0
  3  4  1  0
  4 10  2  0
  5  1  1  0
  6 18  1  0
  7  1  1  0
  8  1  1  0
  9 11  2  0
 10 12  1  0
 11  6  1  0
 12  6  2  0
 13  5  1  0
 14  5  1  0
 15 14  1  0
 16 13  1  0
 17  1  1  0
 18 25  1  0
 19  2  1  0
 20 18  1  0
 21 19  1  0
 22  3  1  0
 23  3  1  0
 24  3  1  0
 25 21  1  0
 26  8  1  0
 27  8  2  0
 28  7  2  0
 29  7  1  0
 30 26  2  0
 31 29  2  0
 32 28  1  0
 33 27  1  0
 34 31  1  0
 35 33  2  0
 16  2  1  0
 30 35  1  0
 32 34  2  0
  9  4  1  0
M  END

> <chembl_id>
CHEMBL17157

> <chembl_pref_name>
TERFENADINE

$$$$

     RDKit          2D

 19 20  0  0  0  0  0  0  0  0999 V2000
    5.1887   -7.2113    0.0000 C   0  0  0  0  0  0  0  0  0  0  0  0
    5.1901   -6.0113    0.0000 N   0  0  0  0  0  0  0  0  0  0  0  0
    6.2302   -5.4128    0.0000 C   0  0  0  0  0  0  0  0  0  0  0  0
    3.8917   -5.2586    0.0000 C   0  0  0  0  0  0  0  0  0  0  0  0
    3.8934   -3.7577    0.0000 C   0  0  0  0  0  0  0  0  0  0  0  0
    2.5949   -3.0050    0.0000 O   0  0  0  0  0  0  0  0  0  0  0  0
    2.5966   -1.5042    0.0000 C   0  0  0  0  0  0  0  0  0  0  0  0
    1.2990   -0.7500    0.0000 C   0  0  0  0  0  0  0  0  0  0  0  0
    1.2990    0.7500    0.0000 C   0  0  0  0  0  0  0  0  0  0  0  0
    0.0000    1.5000    0.0000 C   0  0  0  0  0  0  0  0  0  0  0  0
   -1.2990    0.7500    0.0000 C   0  0  0  0  0  0  0  0  0  0  0  0
   -1.2990   -0.7500    0.0000 C   0  0  0  0  0  0  0  0  0  0  0  0
    0.0000   -1.5000    0.0000 C   0  0  0  0  0  0  0  0  0  0  0  0
    3.8990   -0.7582    0.0000 C   0  0  0  0  0  0  0  0  0  0  0  0
    3.9042    0.7419    0.0000 C   0  0  0  0  0  0  0  0  0  0  0  0
    5.2058    1.4875    0.0000 C   0  0  0  0  0  0  0  0  0  0  0  0
    6.5023    0.7331    0.0000 C   0  0  0  0  0  0  0  0  0  0  0  0
    6.4972   -0.7669    0.0000 C   0  0  0  0  0  0  0  0  0  0  0  0
    5.1956   -1.5125    0.0000 C   0  0  0  0  0  0  0  0  0  0  0  0
  1  2  1  0
  2  3  1  0
  2  4  1  0
  4  5  1  0
  5  6  1  0
  6  7  1  0
  7  8  1  0
  8  9  2  0
  9 10  1  0
 10 11  2  0
 11 12  1  0
 12 13  2  0
 13  8  1  0
  7 14  1  0
 14 15  2  0
 15 16  1  0
 16 17  2  0
 17 18  1  0
 18 19  2  0
 19 14  1  0
M  END

> <chembl_id>
CHEMBL657

> <chembl_pref_name>
DIPHENHYDRAMINE

$$$$

     RDKit          2D

 19 20  0  0  0  0  0  0  0  0999 V2000
    6.2042   -4.1292    0.0000 C   0  0  0  0  0  0  0  0  0  0  0  0
    6.2042   -4.8375    0.0000 C   0  0  0  0  0  0  0  0  0  0  0  0
    4.9667   -4.1292    0.0000 N   0  0  0  0  0  0  0  0  0  0  0  0
    6.8042   -3.7792    0.0000 C   0  0  0  0  0  0  0  0  0  0  0  0
    5.5792   -3.7792    0.0000 C   0  0  0  0  0  0  0  0  0  0  0  0
    7.4167   -4.1292    0.0000 C   0  0  0  0  0  0  0  0  0  0  0  0
    6.8042   -3.0667    0.0000 C   0  0  0  0  0  0  0  0  0  0  0  0
    6.8042   -5.1875    0.0000 C   0  0  0  0  0  0  0  0  0  0  0  0
    6.8042   -5.9042    0.0000 N   0  0  0  0  0  0  0  0  0  0  0  0
    8.0417   -3.0667    0.0000 C   0  0  0  0  0  0  0  0  0  0  0  0
    7.4167   -2.7125    0.0000 C   0  0  0  0  0  0  0  0  0  0  0  0
    8.0417   -3.7792    0.0000 C   0  0  0  0  0  0  0  0  0  0  0  0
    8.6625   -2.7125    0.0000 Br  0  0  0  0  0  0  0  0  0  0  0  0
    4.3500   -3.7792    0.0000 C   0  0  0  0  0  0  0  0  0  0  0  0
    5.5792   -3.0667    0.0000 C   0  0  0  0  0  0  0  0  0  0  0  0
    7.4167   -6.2542    0.0000 C   0  0  0  0  0  0  0  0  0  0  0  0
    6.2042   -6.2542    0.0000 C   0  0  0  0  0  0  0  0  0  0  0  0
    4.3500   -3.0667    0.0000 C   0  0  0  0  0  0  0  0  0  0  0  0
    4.9667   -2.7125    0.0000 C   0  0  0  0  0  0  0  0  0  0  0  0
  2  1  1  0
  3  5  2  0
  4  1  1  0
  5  1  1  0
  6  4  2  0
  7  4  1  0
  8  2  1  0
  9  8  1  0
 10 11  1  0
 11  7  2  0
 12  6  1  0
 13 10  1  0
 14  3  1  0
 15  5  1  0
 16  9  1  0
 17  9  1  0
 18 19  1  0
 19 15  2  0
 10 12  2  0
 18 14  2  0
M  END

> <chembl_id>
CHEMBL811

> <chembl_pref_name>
BROMPHENIRAMINE

$$$$

     RDKit          2D

 28 31  0  0  0  0  0  0  0  0999 V2000
    3.8407  -11.3832    0.0000 N   0  0  0  0  0  0  0  0  0  0  0  0
    3.1243  -10.9740    0.0000 C   0  0  0  0  0  0  0  0  0  0  0  0
    3.1191  -10.1514    0.0000 C   0  0  0  0  0  0  0  0  0  0  0  0
    3.8323   -9.7344    0.0000 N   0  0  0  0  0  0  0  0  0  0  0  0
    4.5487  -10.1436    0.0000 C   0  0  0  0  0  0  0  0  0  0  0  0
    4.5519  -10.9698    0.0000 C   0  0  0  0  0  0  0  0  0  0  0  0
    3.8292   -8.9082    0.0000 C   0  0  0  0  0  0  0  0  0  0  0  0
    4.5424   -8.4911    0.0000 C   0  0  0  0  0  0  0  0  0  0  0  0
    4.5372   -7.6686    0.0000 C   0  0  0  0  0  0  0  0  0  0  0  0
    5.2504   -7.2515    0.0000 C   0  0  0  0  0  0  0  0  0  0  0  0
    5.2452   -6.4289    0.0000 C   0  0  0  0  0  0  0  0  0  0  0  0
    5.9584   -6.0119    0.0000 C   0  0  0  0  0  0  0  0  0  0  0  0
    6.6748   -6.4211    0.0000 C   0  0  0  0  0  0  0  0  0  0  0  0
    6.6780   -7.2473    0.0000 C   0  0  0  0  0  0  0  0  0  0  0  0
    5.9668   -7.6607    0.0000 C   0  0  0  0  0  0  0  0  0  0  0  0
    3.8439  -12.2094    0.0000 C   0  0  0  0  0  0  0  0  0  0  0  0
    4.5603  -12.6185    0.0000 C   0  0  0  0  0  0  0  0  0  0  0  0
    5.2735  -12.2015    0.0000 C   0  0  0  0  0  0  0  0  0  0  0  0
    5.9899  -12.6107    0.0000 C   0  0  0  0  0  0  0  0  0  0  0  0
    5.9930  -13.4369    0.0000 C   0  0  0  0  0  0  0  0  0  0  0  0
    5.2798  -13.8539    0.0000 C   0  0  0  0  0  0  0  0  0  0  0  0
    4.5634  -13.4447    0.0000 C   0  0  0  0  0  0  0  0  0  0  0  0
    3.1307  -12.6264    0.0000 C   0  0  0  0  0  0  0  0  0  0  0  0
    3.1359  -13.4490    0.0000 C   0  0  0  0  0  0  0  0  0  0  0  0
    2.4226  -13.8660    0.0000 C   0  0  0  0  0  0  0  0  0  0  0  0
    1.7063  -13.4569    0.0000 C   0  0  0  0  0  0  0  0  0  0  0  0
    1.7031  -12.6307    0.0000 C   0  0  0  0  0  0  0  0  0  0  0  0
    2.4143  -12.2173    0.0000 C   0  0  0  0  0  0  0  0  0  0  0  0
  1  2  1  0
  2  3  1  0
  3  4  1  0
  4  5  1  0
  5  6  1  0
  1  6  1  0
  7  8  1  0
  8  9  2  0
  9 10  1  0
 10 11  1  0
 11 12  2  0
 12 13  1  0
 13 14  2  0
 14 15  1  0
 10 15  2  0
  4  7  1  0
 16 17  1  0
 17 18  1  0
 18 19  2  0
 19 20  1  0
 20 21  2  0
 21 22  1  0
 17 22  2  0
 16 23  1  0
 23 24  1  0
 24 25  2  0
 25 26  1  0
 26 27  2  0
 27 28  1  0
 23 28  2  0
  1 16  1  0
M  END

> <chembl_id>
CHEMBL43064

> <chembl_pref_name>
CINNARIZINE

$$$$

     RDKit          2D

 37 40  0  0  0  0  0  0  0  0999 V2000
   -1.0083   -1.1750    0.0000 C   0  0  0  0  0  0  0  0  0  0  0  0
    5.7167    1.3083    0.0000 C   0  0  0  0  0  0  0  0  0  0  0  0
    6.3500    0.9583    0.0000 C   0  0  0  0  0  0  0  0  0  0  0  0
    0.8250   -0.1042    0.0000 N   0  0  0  0  0  0  0  0  0  0  0  0
    5.1250    0.9583    0.0000 C   0  0  0  0  0  0  0  0  0  0  0  0
   -0.4000   -0.8167    0.0000 C   0  0  0  0  0  0  0  0  0  0  0  0
    3.9042    0.2583    0.0000 C   0  0  0  0  0  0  0  0  0  0  0  0
    6.3500    0.2583    0.0000 O   0  0  0  0  0  0  0  0  0  0  0  0
   -1.6250   -0.8167    0.0000 C   0  0  0  0  0  0  0  0  0  0  0  0
   -1.0083   -1.8792    0.0000 C   0  0  0  0  0  0  0  0  0  0  0  0
    5.1250    0.2583    0.0000 C   0  0  0  0  0  0  0  0  0  0  0  0
    4.5167    1.3208    0.0000 C   0  0  0  0  0  0  0  0  0  0  0  0
    4.5167   -0.1042    0.0000 C   0  0  0  0  0  0  0  0  0  0  0  0
    3.9042    0.9583    0.0000 C   0  0  0  0  0  0  0  0  0  0  0  0
   -0.4000   -0.1042    0.0000 C   0  0  0  0  0  0  0  0  0  0  0  0
    0.2125   -1.1667    0.0000 C   0  0  0  0  0  0  0  0  0  0  0  0
    0.2000    0.2458    0.0000 C   0  0  0  0  0  0  0  0  0  0  0  0
    0.8250   -0.8167    0.0000 C   0  0  0  0  0  0  0  0  0  0  0  0
   -1.6208   -1.5542    0.0000 O   0  0  0  0  0  0  0  0  0  0  0  0
    3.2792   -0.0875    0.0000 C   0  0  0  0  0  0  0  0  0  0  0  0
    6.9500    1.3208    0.0000 O   0  0  0  0  0  0  0  0  0  0  0  0
    1.4542    0.2708    0.0000 C   0  0  0  0  0  0  0  0  0  0  0  0
    3.2792   -0.7792    0.0000 O   0  0  0  0  0  0  0  0  0  0  0  0
    5.3625    1.9208    0.0000 C   0  0  0  0  0  0  0  0  0  0  0  0
    6.0667    1.9208    0.0000 C   0  0  0  0  0  0  0  0  0  0  0  0
    2.0667   -0.0875    0.0000 C   0  0  0  0  0  0  0  0  0  0  0  0
    2.6792    0.2708    0.0000 C   0  0  0  0  0  0  0  0  0  0  0  0
   -1.6250   -0.1042    0.0000 C   0  0  0  0  0  0  0  0  0  0  0  0
   -2.2500   -1.1750    0.0000 C   0  0  0  0  0  0  0  0  0  0  0  0
   -1.6333   -2.2417    0.0000 C   0  0  0  0  0  0  0  0  0  0  0  0
   -0.4000   -2.2417    0.0000 C   0  0  0  0  0  0  0  0  0  0  0  0
   -1.6333   -2.9750    0.0000 C   0  0  0  0  0  0  0  0  0  0  0  0
   -0.4000   -2.9750    0.0000 C   0  0  0  0  0  0  0  0  0  0  0  0
   -2.2375    0.2583    0.0000 C   0  0  0  0  0  0  0  0  0  0  0  0
   -2.8583   -0.8125    0.0000 C   0  0  0  0  0  0  0  0  0  0  0  0
   -1.0083   -3.3250    0.0000 C   0  0  0  0  0  0  0  0  0  0  0  0
   -2.8583   -0.0917    0.0000 C   0  0  0  0  0  0  0  0  0  0  0  0
  2  5  1  0
  3  2  1  0
  4 18  1  0
  5 12  1  0
  6  1  1  0
  7 20  1  0
  8  3  2  0
  9  1  1  0
 10  1  1  0
 11 13  1  0
 12 14  2  0
 13  7  2  0
 14  7  1  0
 15  6  1  0
 16  6  1  0
 17 15  1  0
 18 16  1  0
 19  1  1  0
 20 27  1  0
 21  3  1  0
 22  4  1  0
 23 20  1  0
 24  2  1  0
 25  2  1  0
 26 22  1  0
 27 26  1  0
 28  9  2  0
 29  9  1  0
 30 10  2  0
 31 10  1  0
 32 30  1  0
 33 31  2  0
 34 28  1  0
 35 29  2  0
 36 33  1  0
 37 34  2  0
 17  4  1  0
 32 36  2  0
 35 37  1  0
 11  5  2  0
M  END

> <chembl_id>
CHEMBL914

> <chembl_pref_name>
FEXOFENADINE

$$$$

     RDKit          2D

 20 22  0  0  0  0  0  0  0  0999 V2000
   -0.6208    0.5250    0.0000 N   0  0  0  0  0  0  0  0  0  0  0  0
    0.6000   -1.6000    0.0000 C   0  0  0  0  0  0  0  0  0  0  0  0
    3.0917    2.6583    0.0000 N   0  0  0  0  0  0  0  0  0  0  0  0
    0.7417   -3.0167    0.0000 S   0  0  0  0  0  0  0  0  0  0  0  0
    0.6125    1.2458    0.0000 C   0  0  0  0  0  0  0  0  0  0  0  0
   -0.6208   -0.9000    0.0000 C   0  0  0  0  0  0  0  0  0  0  0  0
    1.8417    0.5250    0.0000 C   0  0  0  0  0  0  0  0  0  0  0  0
    0.6125    2.6583    0.0000 C   0  0  0  0  0  0  0  0  0  0  0  0
    2.1292   -3.3000    0.0000 C   0  0  0  0  0  0  0  0  0  0  0  0
   -1.8625    1.2458    0.0000 C   0  0  0  0  0  0  0  0  0  0  0  0
    1.8792   -1.0125    0.0000 C   0  0  0  0  0  0  0  0  0  0  0  0
    2.8417   -2.0500    0.0000 C   0  0  0  0  0  0  0  0  0  0  0  0
    3.0917    1.2458    0.0000 C   0  0  0  0  0  0  0  0  0  0  0  0
    1.8417    3.3708    0.0000 C   0  0  0  0  0  0  0  0  0  0  0  0
    4.3417    3.3583    0.0000 C   0  0  0  0  0  0  0  0  0  0  0  0
   -3.1000    0.5250    0.0000 C   0  0  0  0  0  0  0  0  0  0  0  0
   -1.8625    2.6583    0.0000 C   0  0  0  0  0  0  0  0  0  0  0  0
   -3.1000    3.3708    0.0000 C   0  0  0  0  0  0  0  0  0  0  0  0
   -4.3458    1.2458    0.0000 C   0  0  0  0  0  0  0  0  0  0  0  0
   -4.3458    2.6583    0.0000 C   0  0  0  0  0  0  0  0  0  0  0  0
  2  6  1  0
  3 14  1  0
  4  2  1  0
  5  1  1  0
  6  1  1  0
  7  5  1  0
  8  5  1  0
  9  4  1  0
 10  1  1  0
 11  2  2  0
 12 11  1  0
 13  7  1  0
 14  8  1  0
 15  3  1  0
 16 10  1  0
 17 10  2  0
 18 17  1  0
 19 16  2  0
 20 18  2  0
 13  3  1  0
 19 20  1  0
 12  9  2  0
M  END

> <chembl_id>
CHEMBL2105458

> <chembl_pref_name>
THENALIDINE

$$$$

     RDKit          2D

 36 41  0  0  0  0  0  0  0  0999 V2000
    2.3042   -0.2167    0.0000 N   0  0  0  0  0  0  0  0  0  0  0  0
    2.4125   -0.9250    0.0000 C   0  0  0  0  0  0  0  0  0  0  0  0
   -3.1375    0.1250    0.0000 N   0  0  0  0  0  0  0  0  0  0  0  0
   -1.9208    0.1250    0.0000 C   0  0  0  0  0  0  0  0  0  0  0  0
   -2.5333   -0.2375    0.0000 C   0  0  0  0  0  0  0  0  0  0  0  0
    3.0917   -1.0875    0.0000 N   0  0  0  0  0  0  0  0  0  0  0  0
   -3.1375    0.8250    0.0000 C   0  0  0  0  0  0  0  0  0  0  0  0
   -2.5333    1.1833    0.0000 N   0  0  0  0  0  0  0  0  0  0  0  0
    2.9792    0.0333    0.0000 C   0  0  0  0  0  0  0  0  0  0  0  0
   -1.9208    0.8250    0.0000 C   0  0  0  0  0  0  0  0  0  0  0  0
    3.4542   -0.4625    0.0000 C   0  0  0  0  0  0  0  0  0  0  0  0
    1.9000   -1.3667    0.0000 N   0  0  0  0  0  0  0  0  0  0  0  0
    1.7000    0.1250    0.0000 C   0  0  0  0  0  0  0  0  0  0  0  0
   -1.3000   -0.2542    0.0000 C   0  0  0  0  0  0  0  0  0  0  0  0
   -0.0708   -0.2542    0.0000 N   0  0  0  0  0  0  0  0  0  0  0  0
   -3.7458   -0.2375    0.0000 C   0  0  0  0  0  0  0  0  0  0  0  0
    3.1792    0.7125    0.0000 N   0  0  0  0  0  0  0  0  0  0  0  0
    1.7000    0.8333    0.0000 C   0  0  0  0  0  0  0  0  0  0  0  0
   -2.5333   -0.9375    0.0000 O   0  0  0  0  0  0  0  0  0  0  0  0
   -3.7458    1.1833    0.0000 C   0  0  0  0  0  0  0  0  0  0  0  0
    1.0875    1.1750    0.0000 O   0  0  0  0  0  0  0  0  0  0  0  0
    2.3042    1.1833    0.0000 C   0  0  0  0  0  0  0  0  0  0  0  0
    1.3042    1.9708    0.0000 C   0  0  0  0  0  0  0  0  0  0  0  0
   -4.3458    0.1250    0.0000 C   0  0  0  0  0  0  0  0  0  0  0  0
   -4.3458    0.8250    0.0000 C   0  0  0  0  0  0  0  0  0  0  0  0
    2.1292    1.9125    0.0000 C   0  0  0  0  0  0  0  0  0  0  0  0
   -0.6750    0.1083    0.0000 C   0  0  0  0  0  0  0  0  0  0  0  0
    1.1625   -0.9542    0.0000 C   0  0  0  0  0  0  0  0  0  0  0  0
    0.5542   -1.3167    0.0000 C   0  0  0  0  0  0  0  0  0  0  0  0
    1.1625   -0.2542    0.0000 C   0  0  0  0  0  0  0  0  0  0  0  0
   -0.0708   -0.9542    0.0000 C   0  0  0  0  0  0  0  0  0  0  0  0
    0.5542    0.1083    0.0000 C   0  0  0  0  0  0  0  0  0  0  0  0
   -1.3000    1.2083    0.0000 C   0  0  0  0  0  0  0  0  0  0  0  0
    4.1375   -0.3292    0.0000 C   0  0  0  0  0  0  0  0  0  0  0  0
    3.8292    0.8958    0.0000 C   0  0  0  0  0  0  0  0  0  0  0  0
    4.3417    0.3708    0.0000 C   0  0  0  0  0  0  0  0  0  0  0  0
  2  1  1  0
  3  5  1  0
  4 14  1  0
  5  4  1  0
  6  2  2  0
  7  8  2  0
  8 10  1  0
  9  1  1  0
 10  4  2  0
 11  9  2  0
 12  2  1  0
 13  1  1  0
 14 27  1  0
 15 32  1  0
 16  3  1  0
 17  9  1  0
 18 13  1  0
 19  5  2  0
 20  7  1  0
 21 18  1  0
 22 18  2  0
 23 21  1  0
 24 16  2  0
 25 20  2  0
 26 22  1  0
 27 15  1  0
 28 12  1  0
 29 28  1  0
 30 28  1  0
 31 29  1  0
 32 30  1  0
 33 10  1  0
 34 11  1  0
 35 17  2  0
 36 35  1  0
 11  6  1  0
 26 23  2  0
 34 36  2  0
 31 15  1  0
  3  7  1  0
 24 25  1  0
M  END

> <chembl_id>
CHEMBL2105913

> <chembl_pref_name>
BARMASTINE

$$$$

     RDKit          2D

 19 20  0  0  0  0  0  0  0  0999 V2000
    2.7292   -5.0750    0.0000 C   0  0  0  0  0  0  0  0  0  0  0  0
    2.7292   -4.3625    0.0000 C   0  0  0  0  0  0  0  0  0  0  0  0
    1.4875   -5.1042    0.0000 N   0  0  0  0  0  0  0  0  0  0  0  0
    3.3417   -5.4417    0.0000 C   0  0  0  0  0  0  0  0  0  0  0  0
    2.1000   -5.4500    0.0000 C   0  0  0  0  0  0  0  0  0  0  0  0
    3.3542   -6.1542    0.0000 C   0  0  0  0  0  0  0  0  0  0  0  0
    3.9542   -5.0750    0.0000 C   0  0  0  0  0  0  0  0  0  0  0  0
    2.1125   -4.0167    0.0000 C   0  0  0  0  0  0  0  0  0  0  0  0
    2.1000   -3.3042    0.0000 N   0  0  0  0  0  0  0  0  0  0  0  0
    4.5792   -6.1417    0.0000 C   0  0  0  0  0  0  0  0  0  0  0  0
    4.5667   -5.4292    0.0000 C   0  0  0  0  0  0  0  0  0  0  0  0
    3.9750   -6.4917    0.0000 C   0  0  0  0  0  0  0  0  0  0  0  0
    5.2042   -6.5042    0.0000 Cl  0  0  0  0  0  0  0  0  0  0  0  0
    0.8792   -5.4667    0.0000 C   0  0  0  0  0  0  0  0  0  0  0  0
    2.1000   -6.1667    0.0000 C   0  0  0  0  0  0  0  0  0  0  0  0
    2.7042   -2.9417    0.0000 C   0  0  0  0  0  0  0  0  0  0  0  0
    1.4875   -2.9667    0.0000 C   0  0  0  0  0  0  0  0  0  0  0  0
    0.8792   -6.1917    0.0000 C   0  0  0  0  0  0  0  0  0  0  0  0
    1.5000   -6.5292    0.0000 C   0  0  0  0  0  0  0  0  0  0  0  0
  2  1  1  0
  3  5  2  0
  4  1  1  0
  5  1  1  0
  6  4  2  0
  7  4  1  0
  8  2  1  0
  9  8  1  0
 10 11  1  0
 11  7  2  0
 12  6  1  0
 13 10  1  0
 14  3  1  0
 15  5  1  0
 16  9  1  0
 17  9  1  0
 18 19  1  0
 19 15  2  0
 10 12  2  0
 18 14  2  0
M  END

> <chembl_id>
CHEMBL505

> <chembl_pref_name>
CHLORPHENIRAMINE

$$$$

     RDKit          2D

 21 22  0  0  0  0  0  0  0  0999 V2000
    5.9917   -6.9917    0.0000 N   0  0  0  0  0  0  0  0  0  0  0  0
    6.6167   -6.6375    0.0000 C   0  0  0  0  0  0  0  0  0  0  0  0
    7.2292   -6.9917    0.0000 N   0  0  0  0  0  0  0  0  0  0  0  0
    5.3792   -6.6375    0.0000 C   0  0  0  0  0  0  0  0  0  0  0  0
    5.9917   -7.7042    0.0000 C   0  0  0  0  0  0  0  0  0  0  0  0
    4.7667   -6.9875    0.0000 C   0  0  0  0  0  0  0  0  0  0  0  0
    5.3792   -8.7667    0.0000 N   0  0  0  0  0  0  0  0  0  0  0  0
    5.3875   -8.0542    0.0000 C   0  0  0  0  0  0  0  0  0  0  0  0
    3.5292   -7.6917    0.0000 C   0  0  0  0  0  0  0  0  0  0  0  0
    4.7667   -7.7000    0.0000 C   0  0  0  0  0  0  0  0  0  0  0  0
    4.1542   -6.6417    0.0000 C   0  0  0  0  0  0  0  0  0  0  0  0
    3.5375   -6.9917    0.0000 C   0  0  0  0  0  0  0  0  0  0  0  0
    4.1542   -8.0542    0.0000 C   0  0  0  0  0  0  0  0  0  0  0  0
    2.9125   -8.0542    0.0000 O   0  0  0  0  0  0  0  0  0  0  0  0
    6.6167   -5.9375    0.0000 C   0  0  0  0  0  0  0  0  0  0  0  0
    7.8500   -6.6375    0.0000 C   0  0  0  0  0  0  0  0  0  0  0  0
    4.7667   -9.1250    0.0000 C   0  0  0  0  0  0  0  0  0  0  0  0
    6.0000   -9.1292    0.0000 C   0  0  0  0  0  0  0  0  0  0  0  0
    2.3000   -7.7042    0.0000 C   0  0  0  0  0  0  0  0  0  0  0  0
    7.2375   -5.5750    0.0000 C   0  0  0  0  0  0  0  0  0  0  0  0
    7.8500   -5.9250    0.0000 C   0  0  0  0  0  0  0  0  0  0  0  0
  2  1  1  0
  3  2  2  0
  4  1  1  0
  5  1  1  0
  6  4  1  0
  7  8  1  0
  8  5  1  0
  9 12  2  0
 10  6  1  0
 11  6  2  0
 12 11  1  0
 13 10  2  0
 14  9  1  0
 15  2  1  0
 16  3  1  0
 17  7  1  0
 18  7  1  0
 19 14  1  0
 20 15  2  0
 21 16  2  0
  9 13  1  0
 20 21  1  0
M  END

> <chembl_id>
CHEMBL511

> <chembl_pref_name>
PYRILAMINE

$$$$

     RDKit          2D

 22 25  0  0  0  0  0  0  0  0999 V2000
    2.4792   -1.7000    0.0000 C   0  0  0  0  0  0  0  0  0  0  0  0
    2.5167    0.7833    0.0000 N   0  0  0  0  0  0  0  0  0  0  0  0
    3.2167   -2.0625    0.0000 C   0  0  0  0  0  0  0  0  0  0  0  0
    1.7417   -2.0667    0.0000 C   0  0  0  0  0  0  0  0  0  0  0  0
    2.4792   -0.8667    0.0000 C   0  0  0  0  0  0  0  0  0  0  0  0
    2.8917   -3.5250    0.0000 C   0  0  0  0  0  0  0  0  0  0  0  0
    2.0667   -3.5250    0.0000 C   0  0  0  0  0  0  0  0  0  0  0  0
    3.4167   -2.8667    0.0000 C   0  0  0  0  0  0  0  0  0  0  0  0
    1.5542   -2.8792    0.0000 C   0  0  0  0  0  0  0  0  0  0  0  0
    3.1917   -0.4750    0.0000 C   0  0  0  0  0  0  0  0  0  0  0  0
    1.7917   -0.4500    0.0000 C   0  0  0  0  0  0  0  0  0  0  0  0
    1.7917    0.3833    0.0000 C   0  0  0  0  0  0  0  0  0  0  0  0
    3.1917    0.3583    0.0000 C   0  0  0  0  0  0  0  0  0  0  0  0
    2.5167    1.6250    0.0000 C   0  0  0  0  0  0  0  0  0  0  0  0
    1.1292   -1.5042    0.0000 C   0  0  0  0  0  0  0  0  0  0  0  0
    3.8250   -1.4917    0.0000 C   0  0  0  0  0  0  0  0  0  0  0  0
    0.7625   -3.1167    0.0000 C   0  0  0  0  0  0  0  0  0  0  0  0
    4.2042   -3.1042    0.0000 C   0  0  0  0  0  0  0  0  0  0  0  0
    0.3292   -1.7542    0.0000 C   0  0  0  0  0  0  0  0  0  0  0  0
    4.6000   -1.7167    0.0000 C   0  0  0  0  0  0  0  0  0  0  0  0
    4.8167   -2.5292    0.0000 C   0  0  0  0  0  0  0  0  0  0  0  0
    0.1667   -2.5500    0.0000 C   0  0  0  0  0  0  0  0  0  0  0  0
  2 12  1  0
  3  1  1  0
  4  1  1  0
  5  1  2  0
  6  8  1  0
  7  9  1  0
  8  3  1  0
  9  4  2  0
 10  5  1  0
 11  5  1  0
 12 11  1  0
 13 10  1  0
 14  2  1  0
 15  4  1  0
 16  3  2  0
 17  9  1  0
 18  8  2  0
 19 15  2  0
 20 16  1  0
 21 20  2  0
 22 19  1  0
  2 13  1  0
  7  6  2  0
 17 22  2  0
 18 21  1  0
M  END

> <chembl_id>
CHEMBL516

> <chembl_pref_name>
CYPROHEPTADINE

$$$$

     RDKit          2D

 32 36  0  0  0  0  0  0  0  0999 V2000
   -3.6417  -14.8143    0.0000 C   0  0  0  0  0  0  0  0  0  0  0  0
   -2.9592  -15.3044    0.0000 N   0  0  0  0  0  0  0  0  0  0  0  0
   -4.3060  -15.3044    0.0000 N   0  0  0  0  0  0  0  0  0  0  0  0
   -3.2203  -16.0923    0.0000 C   0  0  0  0  0  0  0  0  0  0  0  0
   -4.0449  -16.0877    0.0000 C   0  0  0  0  0  0  0  0  0  0  0  0
    1.3468  -16.0923    0.0000 N   0  0  0  0  0  0  0  0  0  0  0  0
    2.0705  -16.4908    0.0000 C   0  0  0  0  0  0  0  0  0  0  0  0
   -0.0962  -15.2769    0.0000 N   0  0  0  0  0  0  0  0  0  0  0  0
   -3.6417  -13.9897    0.0000 O   0  0  0  0  0  0  0  0  0  0  0  0
    1.3330  -15.2632    0.0000 C   0  0  0  0  0  0  0  0  0  0  0  0
    0.6275  -16.5046    0.0000 C   0  0  0  0  0  0  0  0  0  0  0  0
    2.0705  -17.3154    0.0000 C   0  0  0  0  0  0  0  0  0  0  0  0
    2.7851  -16.0786    0.0000 C   0  0  0  0  0  0  0  0  0  0  0  0
   -2.2446  -14.8830    0.0000 C   0  0  0  0  0  0  0  0  0  0  0  0
    0.6047  -14.8509    0.0000 C   0  0  0  0  0  0  0  0  0  0  0  0
   -0.0871  -16.1061    0.0000 C   0  0  0  0  0  0  0  0  0  0  0  0
   -1.5254  -15.2953    0.0000 C   0  0  0  0  0  0  0  0  0  0  0  0
   -0.8108  -14.8692    0.0000 C   0  0  0  0  0  0  0  0  0  0  0  0
   -2.8081  -16.8069    0.0000 C   0  0  0  0  0  0  0  0  0  0  0  0
   -4.4663  -16.8069    0.0000 C   0  0  0  0  0  0  0  0  0  0  0  0
    3.5043  -16.4908    0.0000 C   0  0  0  0  0  0  0  0  0  0  0  0
    2.7760  -15.2540    0.0000 C   0  0  0  0  0  0  0  0  0  0  0  0
    1.3559  -17.7368    0.0000 C   0  0  0  0  0  0  0  0  0  0  0  0
    2.7897  -17.7277    0.0000 C   0  0  0  0  0  0  0  0  0  0  0  0
   -3.2203  -17.5169    0.0000 C   0  0  0  0  0  0  0  0  0  0  0  0
   -4.0540  -17.5169    0.0000 C   0  0  0  0  0  0  0  0  0  0  0  0
    3.4859  -14.8371    0.0000 C   0  0  0  0  0  0  0  0  0  0  0  0
    1.3559  -18.5613    0.0000 C   0  0  0  0  0  0  0  0  0  0  0  0
    2.7988  -18.5522    0.0000 C   0  0  0  0  0  0  0  0  0  0  0  0
    4.2143  -16.0740    0.0000 C   0  0  0  0  0  0  0  0  0  0  0  0
    4.2143  -15.2494    0.0000 C   0  0  0  0  0  0  0  0  0  0  0  0
    2.0842  -18.9736    0.0000 C   0  0  0  0  0  0  0  0  0  0  0  0
  2  1  1  0
  3  1  1  0
  4  2  1  0
  5  3  1  0
  6 11  1  0
  7  6  1  0
  8 18  1  0
  9  1  2  0
 10 15  1  0
 11 16  1  0
 12  7  1  0
 13  7  1  0
 14  2  1  0
 15  8  1  0
 16  8  1  0
 17 14  1  0
 18 17  1  0
 19  4  1  0
 20  5  1  0
 21 13  2  0
 22 13  1  0
 23 12  2  0
 24 12  1  0
 25 19  2  0
 26 20  2  0
 27 22  2  0
 28 23  1  0
 29 24  2  0
 30 21  1  0
 31 27  1  0
 32 29  1  0
  5  4  2  0
 25 26  1  0
 10  6  1  0
 31 30  2  0
 32 28  2  0
M  END

> <chembl_id>
CHEMBL13828

> <chembl_pref_name>
OXATOMIDE

$$$$

     RDKit          2D

 22 25  0  0  0  0  0  0  0  0999 V2000
    7.2889   -1.4403    0.0000 C   0  0  0  0  0  0  0  0  0  0  0  0
    6.1069   -1.2335    0.0000 N   0  0  0  0  0  0  0  0  0  0  0  0
    5.5920    0.1754    0.0000 C   0  0  0  0  0  0  0  0  0  0  0  0
    4.1145    0.4339    0.0000 C   0  0  0  0  0  0  0  0  0  0  0  0
    3.1484   -0.7186    0.0000 C   0  0  0  0  0  0  0  0  0  0  0  0
    1.6852   -0.3846    0.0000 C   0  0  0  0  0  0  0  0  0  0  0  0
    1.3514    1.0778    0.0000 C   0  0  0  0  0  0  0  0  0  0  0  0
    2.5913    1.9239    0.0000 C   0  0  0  0  0  0  0  0  0  0  0  0
    2.4792    3.4197    0.0000 C   0  0  0  0  0  0  0  0  0  0  0  0
    1.1278    4.0705    0.0000 C   0  0  0  0  0  0  0  0  0  0  0  0
   -0.1116    3.2255    0.0000 C   0  0  0  0  0  0  0  0  0  0  0  0
    0.0000    1.7286    0.0000 C   0  0  0  0  0  0  0  0  0  0  0  0
   -1.3515    1.0777    0.0000 C   0  0  0  0  0  0  0  0  0  0  0  0
   -1.6852   -0.3847    0.0000 C   0  0  0  0  0  0  0  0  0  0  0  0
   -2.8551   -0.6517    0.0000 O   0  0  0  0  0  0  0  0  0  0  0  0
   -0.7500   -1.5574    0.0000 C   0  0  0  0  0  0  0  0  0  0  0  0
   -1.2135   -2.9844    0.0000 S   0  0  0  0  0  0  0  0  0  0  0  0
    0.0000   -3.8661    0.0000 C   0  0  0  0  0  0  0  0  0  0  0  0
    1.2135   -2.9844    0.0000 C   0  0  0  0  0  0  0  0  0  0  0  0
    0.7500   -1.5574    0.0000 C   0  0  0  0  0  0  0  0  0  0  0  0
    3.6667   -2.1252    0.0000 C   0  0  0  0  0  0  0  0  0  0  0  0
    5.1442   -2.3838    0.0000 C   0  0  0  0  0  0  0  0  0  0  0  0
  1  2  1  0
  2  3  1  0
  3  4  1  0
  4  5  1  0
  5  6  2  0
  6  7  1  0
  7  8  2  0
  8  9  1  0
  9 10  2  0
 10 11  1  0
 11 12  2  0
 12  7  1  0
 12 13  1  0
 13 14  1  0
 14 15  2  0
 14 16  1  0
 16 17  1  0
 17 18  1  0
 18 19  2  0
 19 20  1  0
 20  6  1  0
 20 16  2  0
  5 21  1  0
 21 22  1  0
 22  2  1  0
M  END

> <chembl_id>
CHEMBL534

> <chembl_pref_name>
KETOTIFEN

$$$$

     RDKit          2D

 22 24  0  0  0  0  0  0  0  0999 V2000
    1.7250   -3.8417    0.0000 C   0  0  0  0  0  0  0  0  0  0  0  0
    2.1125   -4.4375    0.0000 C   0  0  0  0  0  0  0  0  0  0  0  0
    1.0542   -4.0500    0.0000 C   0  0  0  0  0  0  0  0  0  0  0  0
    1.0542   -4.7875    0.0000 C   0  0  0  0  0  0  0  0  0  0  0  0
    1.7250   -4.9875    0.0000 C   0  0  0  0  0  0  0  0  0  0  0  0
    1.9500   -3.1750    0.0000 C   0  0  0  0  0  0  0  0  0  0  0  0
    2.8292   -4.4375    0.0000 C   0  0  0  0  0  0  0  0  0  0  0  0
    1.4792   -2.6417    0.0000 C   0  0  0  0  0  0  0  0  0  0  0  0
    0.7875   -2.7875    0.0000 N   0  0  0  0  0  0  0  0  0  0  0  0
    3.9125   -5.0500    0.0000 N   0  0  0  0  0  0  0  0  0  0  0  0
    3.1917   -5.0500    0.0000 C   0  0  0  0  0  0  0  0  0  0  0  0
    0.4417   -3.7042    0.0000 C   0  0  0  0  0  0  0  0  0  0  0  0
    0.4417   -5.1292    0.0000 C   0  0  0  0  0  0  0  0  0  0  0  0
    2.6417   -3.0292    0.0000 C   0  0  0  0  0  0  0  0  0  0  0  0
    0.3167   -2.2542    0.0000 C   0  0  0  0  0  0  0  0  0  0  0  0
    1.7042   -1.9667    0.0000 C   0  0  0  0  0  0  0  0  0  0  0  0
    4.2542   -5.6625    0.0000 C   0  0  0  0  0  0  0  0  0  0  0  0
    4.2792   -4.4375    0.0000 C   0  0  0  0  0  0  0  0  0  0  0  0
   -0.1958   -4.0500    0.0000 C   0  0  0  0  0  0  0  0  0  0  0  0
   -0.1958   -4.7875    0.0000 C   0  0  0  0  0  0  0  0  0  0  0  0
    0.5417   -1.5792    0.0000 C   0  0  0  0  0  0  0  0  0  0  0  0
    1.2375   -1.4375    0.0000 C   0  0  0  0  0  0  0  0  0  0  0  0
  2  1  2  0
  3  1  1  0
  4  3  2  0
  5  2  1  0
  6  1  1  0
  7  2  1  0
  8  6  1  0
  9  8  2  0
 10 11  1  0
 11  7  1  0
 12  3  1  0
 13  4  1  0
 14  6  1  0
 15  9  1  0
 16  8  1  0
 17 10  1  0
 18 10  1  0
 19 12  2  0
 20 13  2  0
 21 22  1  0
 22 16  2  0
  4  5  1  0
 20 19  1  0
 21 15  2  0
M  END

> <chembl_id>
CHEMBL22108

> <chembl_pref_name>
DIMETHINDENE

$$$$

     RDKit          2D

 20 22  0  0  0  0  0  0  0  0999 V2000
    6.7375   -5.7542    0.0000 N   0  0  0  0  0  0  0  0  0  0  0  0
    6.7542   -4.3292    0.0000 S   0  0  0  0  0  0  0  0  0  0  0  0
    7.3542   -5.4042    0.0000 C   0  0  0  0  0  0  0  0  0  0  0  0
    6.1292   -5.3917    0.0000 C   0  0  0  0  0  0  0  0  0  0  0  0
    6.7250   -6.4667    0.0000 C   0  0  0  0  0  0  0  0  0  0  0  0
    7.3667   -4.6917    0.0000 C   0  0  0  0  0  0  0  0  0  0  0  0
    6.1417   -4.6875    0.0000 C   0  0  0  0  0  0  0  0  0  0  0  0
    6.1125   -6.8042    0.0000 C   0  0  0  0  0  0  0  0  0  0  0  0
    6.1042   -7.5167    0.0000 N   0  0  0  0  0  0  0  0  0  0  0  0
    5.5167   -5.7375    0.0000 C   0  0  0  0  0  0  0  0  0  0  0  0
    7.9667   -5.7667    0.0000 C   0  0  0  0  0  0  0  0  0  0  0  0
    5.5250   -4.3208    0.0000 C   0  0  0  0  0  0  0  0  0  0  0  0
    7.9750   -4.3417    0.0000 C   0  0  0  0  0  0  0  0  0  0  0  0
    5.4917   -7.8625    0.0000 C   0  0  0  0  0  0  0  0  0  0  0  0
    6.7167   -7.8792    0.0000 C   0  0  0  0  0  0  0  0  0  0  0  0
    5.5125   -6.4500    0.0000 C   0  0  0  0  0  0  0  0  0  0  0  0
    8.5875   -5.4167    0.0000 C   0  0  0  0  0  0  0  0  0  0  0  0
    4.9042   -5.3750    0.0000 C   0  0  0  0  0  0  0  0  0  0  0  0
    8.5917   -4.7000    0.0000 C   0  0  0  0  0  0  0  0  0  0  0  0
    4.9042   -4.6750    0.0000 C   0  0  0  0  0  0  0  0  0  0  0  0
  2  7  1  0
  3  1  1  0
  4  1  1  0
  5  1  1  0
  6  3  2  0
  7  4  1  0
  8  5  1  0
  9  8  1  0
 10  4  2  0
 11  3  1  0
 12  7  2  0
 13  6  1  0
 14  9  1  0
 15  9  1  0
 16  8  1  0
 17 11  2  0
 18 10  1  0
 19 17  1  0
 20 18  2  0
  2  6  1  0
 20 12  1  0
 19 13  2  0
M  END

> <chembl_id>
CHEMBL643

> <chembl_pref_name>
PROMETHAZINE

$$$$

     RDKit          2D

 21 23  0  0  0  0  0  0  0  0999 V2000
    1.0792    0.5083    0.0000 N   0  0  0  0  0  0  0  0  0  0  0  0
    0.0625   -0.0542    0.0000 C   0  0  0  0  0  0  0  0  0  0  0  0
    3.1167    1.6875    0.0000 N   0  0  0  0  0  0  0  0  0  0  0  0
   -0.9458    0.5083    0.0000 C   0  0  0  0  0  0  0  0  0  0  0  0
    1.0792    1.6875    0.0000 C   0  0  0  0  0  0  0  0  0  0  0  0
    2.1000   -0.0542    0.0000 C   0  0  0  0  0  0  0  0  0  0  0  0
    0.0625   -1.2292    0.0000 C   0  0  0  0  0  0  0  0  0  0  0  0
   -1.9708   -0.0542    0.0000 C   0  0  0  0  0  0  0  0  0  0  0  0
   -0.9458    1.6875    0.0000 C   0  0  0  0  0  0  0  0  0  0  0  0
    2.1000    2.2750    0.0000 C   0  0  0  0  0  0  0  0  0  0  0  0
    3.1167    0.5083    0.0000 C   0  0  0  0  0  0  0  0  0  0  0  0
   -2.9833    1.6875    0.0000 C   0  0  0  0  0  0  0  0  0  0  0  0
   -1.9708    2.2750    0.0000 C   0  0  0  0  0  0  0  0  0  0  0  0
   -2.9833    0.5083    0.0000 C   0  0  0  0  0  0  0  0  0  0  0  0
   -4.0000    2.2750    0.0000 Cl  0  0  0  0  0  0  0  0  0  0  0  0
    4.1417    2.2750    0.0000 C   0  0  0  0  0  0  0  0  0  0  0  0
   -0.9458   -1.8292    0.0000 C   0  0  0  0  0  0  0  0  0  0  0  0
    1.0792   -1.8292    0.0000 C   0  0  0  0  0  0  0  0  0  0  0  0
   -0.9458   -3.0042    0.0000 C   0  0  0  0  0  0  0  0  0  0  0  0
    1.0792   -3.0042    0.0000 C   0  0  0  0  0  0  0  0  0  0  0  0
    0.0625   -3.5917    0.0000 C   0  0  0  0  0  0  0  0  0  0  0  0
  2  1  1  0
  3 11  1  0
  4  2  1  0
  5  1  1  0
  6  1  1  0
  7  2  1  0
  8  4  1  0
  9  4  2  0
 10  5  1  0
 11  6  1  0
 12 13  2  0
 13  9  1  0
 14  8  2  0
 15 12  1  0
 16  3  1  0
 17  7  2  0
 18  7  1  0
 19 17  1  0
 20 18  2  0
 21 19  2  0
 10  3  1  0
 14 12  1  0
 20 21  1  0
M  END

> <chembl_id>
CHEMBL22150

> <chembl_pref_name>
CHLORCYCLIZINE

$$$$

     RDKit          2D

 20 22  0  0  0  0  0  0  0  0999 V2000
    2.1342   -2.4700    0.0000 N   0  0  0  0  0  0  0  0  0  0  0  0
    2.1342   -0.8250    0.0000 N   0  0  0  0  0  0  0  0  0  0  0  0
    2.1342   -3.2950    0.0000 C   0  0  0  0  0  0  0  0  0  0  0  0
    2.8455   -3.7101    0.0000 C   0  0  0  0  0  0  0  0  0  0  0  0
    1.4178   -3.7101    0.0000 C   0  0  0  0  0  0  0  0  0  0  0  0
    2.8455   -2.0649    0.0000 C   0  0  0  0  0  0  0  0  0  0  0  0
    1.4178   -2.0649    0.0000 C   0  0  0  0  0  0  0  0  0  0  0  0
    3.5619   -3.2950    0.0000 C   0  0  0  0  0  0  0  0  0  0  0  0
    1.4178   -4.5351    0.0000 C   0  0  0  0  0  0  0  0  0  0  0  0
    2.8455   -4.5351    0.0000 C   0  0  0  0  0  0  0  0  0  0  0  0
    0.7163   -3.2950    0.0000 C   0  0  0  0  0  0  0  0  0  0  0  0
    2.8455   -1.2399    0.0000 C   0  0  0  0  0  0  0  0  0  0  0  0
    1.4178   -1.2399    0.0000 C   0  0  0  0  0  0  0  0  0  0  0  0
    4.2732   -3.7101    0.0000 C   0  0  0  0  0  0  0  0  0  0  0  0
    0.7163   -4.9402    0.0000 C   0  0  0  0  0  0  0  0  0  0  0  0
    3.5619   -4.9402    0.0000 C   0  0  0  0  0  0  0  0  0  0  0  0
    0.0000   -3.7101    0.0000 C   0  0  0  0  0  0  0  0  0  0  0  0
    4.2732   -4.5351    0.0000 C   0  0  0  0  0  0  0  0  0  0  0  0
    0.0000   -4.5351    0.0000 C   0  0  0  0  0  0  0  0  0  0  0  0
    2.1342    0.0000    0.0000 C   0  0  0  0  0  0  0  0  0  0  0  0
  1  3  1  0
  1  6  1  0
  1  7  1  0
  2 12  1  0
  2 13  1  0
  2 20  1  0
  3  4  1  0
  3  5  1  0
  4  8  2  0
  4 10  1  0
  5  9  2  0
  5 11  1  0
  6 12  1  0
  7 13  1  0
  8 14  1  0
  9 15  1  0
 10 16  2  0
 11 17  2  0
 14 18  2  0
 15 19  2  0
 16 18  1  0
 17 19  1  0
M  END

> <chembl_id>
CHEMBL648

> <chembl_pref_name>
CYCLIZINE

$$$$

     RDKit          2D

 20 23  0  0  0  0  0  0  0  0999 V2000
    5.3542   -4.1292    0.0000 C   0  0  0  0  0  0  0  0  0  0  0  0
    5.3542   -3.4542    0.0000 C   0  0  0  0  0  0  0  0  0  0  0  0
    4.1750   -4.1292    0.0000 C   0  0  0  0  0  0  0  0  0  0  0  0
    4.7667   -4.4667    0.0000 C   0  0  0  0  0  0  0  0  0  0  0  0
    4.1750   -3.4542    0.0000 C   0  0  0  0  0  0  0  0  0  0  0  0
    5.9542   -4.4667    0.0000 C   0  0  0  0  0  0  0  0  0  0  0  0
    5.9542   -3.1167    0.0000 C   0  0  0  0  0  0  0  0  0  0  0  0
    6.5417   -4.1292    0.0000 N   0  0  0  0  0  0  0  0  0  0  0  0
    4.7667   -5.1750    0.0000 C   0  0  0  0  0  0  0  0  0  0  0  0
    6.5417   -3.4542    0.0000 C   0  0  0  0  0  0  0  0  0  0  0  0
    3.5792   -4.4667    0.0000 C   0  0  0  0  0  0  0  0  0  0  0  0
    3.5792   -3.1167    0.0000 C   0  0  0  0  0  0  0  0  0  0  0  0
    7.1542   -4.4792    0.0000 C   0  0  0  0  0  0  0  0  0  0  0  0
    5.3792   -5.5125    0.0000 C   0  0  0  0  0  0  0  0  0  0  0  0
    4.1542   -5.5167    0.0000 C   0  0  0  0  0  0  0  0  0  0  0  0
    2.9917   -4.1292    0.0000 C   0  0  0  0  0  0  0  0  0  0  0  0
    2.9917   -3.4542    0.0000 C   0  0  0  0  0  0  0  0  0  0  0  0
    5.3792   -6.2167    0.0000 C   0  0  0  0  0  0  0  0  0  0  0  0
    4.1625   -6.2167    0.0000 C   0  0  0  0  0  0  0  0  0  0  0  0
    4.7792   -6.5667    0.0000 C   0  0  0  0  0  0  0  0  0  0  0  0
  2  1  2  0
  3  4  1  0
  4  1  1  0
  5  2  1  0
  6  1  1  0
  7  2  1  0
  8  6  1  0
  9  4  1  0
 10  8  1  0
 11  3  1  0
 12  5  1  0
 13  8  1  0
 14  9  1  0
 15  9  2  0
 16 11  2  0
 17 12  2  0
 18 14  2  0
 19 15  1  0
 20 19  2  0
  3  5  2  0
  7 10  1  0
 16 17  1  0
 18 20  1  0
M  END

> <chembl_id>
CHEMBL278398

> <chembl_pref_name>
PHENINDAMINE

$$$$

     RDKit          2D

 21 23  0  0  0  0  0  0  0  0999 V2000
   15.6205   -9.7243    0.0000 N   0  0  0  0  0  0  0  0  0  0  0  0
   15.6204   -8.0826    0.0000 S   0  0  0  0  0  0  0  0  0  0  0  0
   16.3324   -9.3175    0.0000 C   0  0  0  0  0  0  0  0  0  0  0  0
   14.8940   -9.3176    0.0000 C   0  0  0  0  0  0  0  0  0  0  0  0
   16.3323   -8.4893    0.0000 C   0  0  0  0  0  0  0  0  0  0  0  0
   14.8939   -8.4894    0.0000 C   0  0  0  0  0  0  0  0  0  0  0  0
   15.6205  -10.5525    0.0000 C   0  0  0  0  0  0  0  0  0  0  0  0
   14.8941  -10.9593    0.0000 C   0  0  0  0  0  0  0  0  0  0  0  0
   14.8942  -11.7875    0.0000 C   0  0  0  0  0  0  0  0  0  0  0  0
   14.1823  -12.1943    0.0000 N   0  0  0  0  0  0  0  0  0  0  0  0
   14.1821   -9.7244    0.0000 C   0  0  0  0  0  0  0  0  0  0  0  0
   17.0443   -9.7242    0.0000 C   0  0  0  0  0  0  0  0  0  0  0  0
   14.1820   -8.0827    0.0000 C   0  0  0  0  0  0  0  0  0  0  0  0
   17.0442   -8.0825    0.0000 C   0  0  0  0  0  0  0  0  0  0  0  0
   14.1822  -10.5526    0.0000 C   0  0  0  0  0  0  0  0  0  0  0  0
   14.1823  -13.0225    0.0000 C   0  0  0  0  0  0  0  0  0  0  0  0
   13.4703  -11.7876    0.0000 C   0  0  0  0  0  0  0  0  0  0  0  0
   17.7562   -9.3174    0.0000 C   0  0  0  0  0  0  0  0  0  0  0  0
   13.4702   -9.3177    0.0000 C   0  0  0  0  0  0  0  0  0  0  0  0
   13.4701   -8.4895    0.0000 C   0  0  0  0  0  0  0  0  0  0  0  0
   17.7561   -8.4892    0.0000 C   0  0  0  0  0  0  0  0  0  0  0  0
 10  9  1  0
 11  4  2  0
 12  3  1  0
 13  6  2  0
 14  5  1  0
 15  8  1  0
 16 10  1  0
 17 10  1  0
 18 12  2  0
 19 11  1  0
 20 19  2  0
 21 18  1  0
  5  2  1  0
 13 20  1  0
 14 21  2  0
  2  6  1  0
  3  1  1  0
  4  1  1  0
  5  3  2  0
  6  4  1  0
  7  1  1  0
  8  7  1  0
  9  8  1  0
M  END

> <chembl_id>
CHEMBL829

> <chembl_pref_name>
METHYLPROMAZINE

$$$$

     RDKit          2D

 21 23  0  0  0  0  0  0  0  0999 V2000
    2.8500   -1.7542    0.0000 C   0  0  0  0  0  0  0  0  0  0  0  0
    2.1292    0.3375    0.0000 N   0  0  0  0  0  0  0  0  0  0  0  0
    2.8500   -0.9250    0.0000 C   0  0  0  0  0  0  0  0  0  0  0  0
    2.1292   -2.1792    0.0000 C   0  0  0  0  0  0  0  0  0  0  0  0
    3.5792   -2.1792    0.0000 C   0  0  0  0  0  0  0  0  0  0  0  0
    2.1292   -0.5167    0.0000 C   0  0  0  0  0  0  0  0  0  0  0  0
    4.3000   -1.7667    0.0000 N   0  0  0  0  0  0  0  0  0  0  0  0
    2.1292   -3.0250    0.0000 C   0  0  0  0  0  0  0  0  0  0  0  0
    1.4042   -1.7667    0.0000 C   0  0  0  0  0  0  0  0  0  0  0  0
    0.6792   -2.1917    0.0000 C   0  0  0  0  0  0  0  0  0  0  0  0
    1.4042   -3.4292    0.0000 C   0  0  0  0  0  0  0  0  0  0  0  0
    0.6792   -3.0292    0.0000 C   0  0  0  0  0  0  0  0  0  0  0  0
    2.7750    0.8083    0.0000 C   0  0  0  0  0  0  0  0  0  0  0  0
    1.4917    0.8333    0.0000 C   0  0  0  0  0  0  0  0  0  0  0  0
    5.0292   -2.1917    0.0000 C   0  0  0  0  0  0  0  0  0  0  0  0
    3.5792   -3.0250    0.0000 C   0  0  0  0  0  0  0  0  0  0  0  0
   -0.0458   -3.4667    0.0000 C   0  0  0  0  0  0  0  0  0  0  0  0
    1.7292    1.5708    0.0000 C   0  0  0  0  0  0  0  0  0  0  0  0
    2.5417    1.5708    0.0000 C   0  0  0  0  0  0  0  0  0  0  0  0
    5.0292   -3.0125    0.0000 C   0  0  0  0  0  0  0  0  0  0  0  0
    4.3000   -3.4292    0.0000 C   0  0  0  0  0  0  0  0  0  0  0  0
  2  6  1  0
  3  1  2  0
  4  1  1  0
  5  1  1  0
  6  3  1  0
  7  5  1  0
  8  4  2  0
  9  4  1  0
 10  9  2  0
 11  8  1  0
 12 10  1  0
 13  2  1  0
 14  2  1  0
 15  7  2  0
 16  5  2  0
 17 12  1  0
 18 14  1  0
 19 13  1  0
 20 21  2  0
 21 16  1  0
 15 20  1  0
 11 12  2  0
 18 19  1  0
M  END

> <chembl_id>
CHEMBL855

> <chembl_pref_name>
TRIPROLIDINE

$$$$

     RDKit          2D

 34 38  0  0  0  0  0  0  0  0999 V2000
   -4.2045    0.9625    0.0000 C   0  0  0  0  0  0  0  0  0  0  0  0
   -4.2057    0.1350    0.0000 C   0  0  0  0  0  0  0  0  0  0  0  0
   -3.4882   -0.2780    0.0000 C   0  0  0  0  0  0  0  0  0  0  0  0
   -3.4902    1.3753    0.0000 C   0  0  0  0  0  0  0  0  0  0  0  0
   -2.7766    0.9666    0.0000 C   0  0  0  0  0  0  0  0  0  0  0  0
   -2.7763    0.1399    0.0000 C   0  0  0  0  0  0  0  0  0  0  0  0
   -1.9896   -0.1178    0.0000 N   0  0  0  0  0  0  0  0  0  0  0  0
   -1.5058    0.5537    0.0000 C   0  0  0  0  0  0  0  0  0  0  0  0
   -1.9908    1.2194    0.0000 N   0  0  0  0  0  0  0  0  0  0  0  0
   -1.5842    1.9354    0.0000 C   0  0  0  0  0  0  0  0  0  0  0  0
   -0.7592    1.9421    0.0000 C   0  0  0  0  0  0  0  0  0  0  0  0
   -0.3434    1.2259    0.0000 C   0  0  0  0  0  0  0  0  0  0  0  0
    0.4807    1.2323    0.0000 C   0  0  0  0  0  0  0  0  0  0  0  0
    0.8882    1.9490    0.0000 C   0  0  0  0  0  0  0  0  0  0  0  0
    0.4650    2.6653    0.0000 C   0  0  0  0  0  0  0  0  0  0  0  0
   -0.3576    2.6550    0.0000 C   0  0  0  0  0  0  0  0  0  0  0  0
    1.7131    1.9569    0.0000 F   0  0  0  0  0  0  0  0  0  0  0  0
   -0.6808    0.5545    0.0000 N   0  0  0  0  0  0  0  0  0  0  0  0
   -0.2675   -0.1621    0.0000 C   0  0  0  0  0  0  0  0  0  0  0  0
   -0.6814   -0.8761    0.0000 C   0  0  0  0  0  0  0  0  0  0  0  0
   -0.2720   -1.5905    0.0000 C   0  0  0  0  0  0  0  0  0  0  0  0
    0.5533   -1.5943    0.0000 N   0  0  0  0  0  0  0  0  0  0  0  0
    0.9676   -0.8769    0.0000 C   0  0  0  0  0  0  0  0  0  0  0  0
    0.5564   -0.1603    0.0000 C   0  0  0  0  0  0  0  0  0  0  0  0
    0.9636   -2.3082    0.0000 C   0  0  0  0  0  0  0  0  0  0  0  0
    1.7886   -2.3107    0.0000 C   0  0  0  0  0  0  0  0  0  0  0  0
    2.1989   -3.0246    0.0000 C   0  0  0  0  0  0  0  0  0  0  0  0
    1.7840   -3.7369    0.0000 C   0  0  0  0  0  0  0  0  0  0  0  0
    2.1935   -4.4502    0.0000 C   0  0  0  0  0  0  0  0  0  0  0  0
    3.0195   -4.4533    0.0000 C   0  0  0  0  0  0  0  0  0  0  0  0
    3.4341   -3.7364    0.0000 C   0  0  0  0  0  0  0  0  0  0  0  0
    3.0219   -3.0218    0.0000 C   0  0  0  0  0  0  0  0  0  0  0  0
    3.4308   -5.1712    0.0000 O   0  0  0  0  0  0  0  0  0  0  0  0
    4.2558   -5.1725    0.0000 C   0  0  0  0  0  0  0  0  0  0  0  0
 16 11  1  0
  6  7  1  0
 14 17  1  0
  7  8  2  0
  8 18  1  0
  8  9  1  0
 18 19  1  0
 19 20  1  0
  9  5  1  0
  4  1  1  0
  9 10  1  0
  5  6  1  0
 10 11  1  0
 19 24  1  0
 20 21  1  0
 21 22  1  0
 22 23  1  0
 23 24  1  0
 22 25  1  0
 11 12  2  0
 25 26  1  0
  2  3  1  0
 26 27  1  0
 12 13  1  0
 27 28  2  0
  3  6  2  0
 28 29  1  0
 13 14  2  0
 29 30  2  0
  1  2  2  0
 30 31  1  0
 14 15  1  0
 31 32  2  0
 32 27  1  0
  5  4  2  0
 30 33  1  0
 15 16  2  0
 33 34  1  0
M  END

> <chembl_id>
CHEMBL296419

> <chembl_pref_name>
ASTEMIZOLE

$$$$
