
     RDKit          2D

 20 21  0  0  0  0  0  0  0  0999 V2000
    4.7417   -7.1875    0.0000 C   0  0  0  0  0  0  0  0  0  0  0  0
    4.1250   -7.5792    0.0000 C   0  0  0  0  0  0  0  0  0  0  0  0
    4.7417   -6.4875    0.0000 C   0  0  0  0  0  0  0  0  0  0  0  0
    5.3542   -7.5375    0.0000 C   0  0  0  0  0  0  0  0  0  0  0  0
    5.3542   -6.1292    0.0000 C   0  0  0  0  0  0  0  0  0  0  0  0
    4.1292   -6.1292    0.0000 C   0  0  0  0  0  0  0  0  0  0  0  0
    5.9542   -7.1792    0.0000 N   0  0  0  0  0  0  0  0  0  0  0  0
    4.7750   -8.0125    0.0000 O   0  0  0  0  0  0  0  0  0  0  0  0
    4.7417   -5.0625    0.0000 C   0  0  0  0  0  0  0  0  0  0  0  0
    4.1292   -5.4167    0.0000 C   0  0  0  0  0  0  0  0  0  0  0  0
    5.3542   -5.4167    0.0000 C   0  0  0  0  0  0  0  0  0  0  0  0
    4.7417   -4.3625    0.0000 O   0  0  0  0  0  0  0  0  0  0  0  0
    3.5125   -7.2417    0.0000 C   0  0  0  0  0  0  0  0  0  0  0  0
    4.1250   -8.2917    0.0000 C   0  0  0  0  0  0  0  0  0  0  0  0
    6.5750   -7.5167    0.0000 C   0  0  0  0  0  0  0  0  0  0  0  0
    5.9542   -6.4792    0.0000 C   0  0  0  0  0  0  0  0  0  0  0  0
    5.3542   -4.0250    0.0000 C   0  0  0  0  0  0  0  0  0  0  0  0
    2.9042   -7.5792    0.0000 C   0  0  0  0  0  0  0  0  0  0  0  0
    3.5125   -8.6667    0.0000 C   0  0  0  0  0  0  0  0  0  0  0  0
    2.9042   -8.2917    0.0000 C   0  0  0  0  0  0  0  0  0  0  0  0
  2  1  1  0
  3  1  1  0
  4  1  1  0
  5  3  1  0
  6  3  2  0
  7  4  1  0
  8  2  1  0
  9 10  2  0
 10  6  1  0
 11  5  2  0
 12  9  1  0
 13  2  1  0
 14  2  1  0
 15  7  1  0
 16  7  1  0
 17 12  1  0
 18 13  1  0
 19 14  1  0
 20 18  1  0
  9 11  1  0
 20 19  1  0
M  END

> <chembl_id>
CHEMBL637

> <chembl_pref_name>
VENLAFAXINE

$$$$

     RDKit          2D

 28 30  0  0  0  0  0  0  0  0999 V2000
   16.2322  -16.3335    0.0000 C   0  0  0  0  0  0  0  0  0  0  0  0
   16.2310  -17.1609    0.0000 C   0  0  0  0  0  0  0  0  0  0  0  0
   16.9458  -17.5738    0.0000 C   0  0  0  0  0  0  0  0  0  0  0  0
   17.6622  -17.1605    0.0000 C   0  0  0  0  0  0  0  0  0  0  0  0
   17.6594  -16.3299    0.0000 C   0  0  0  0  0  0  0  0  0  0  0  0
   16.9440  -15.9207    0.0000 C   0  0  0  0  0  0  0  0  0  0  0  0
   16.9415  -15.0957    0.0000 O   0  0  0  0  0  0  0  0  0  0  0  0
   17.6548  -14.6811    0.0000 C   0  0  0  0  0  0  0  0  0  0  0  0
   17.6523  -13.8562    0.0000 O   0  0  0  0  0  0  0  0  0  0  0  0
   18.3705  -15.0915    0.0000 C   0  0  0  0  0  0  0  0  0  0  0  0
   16.9456  -18.3988    0.0000 C   0  0  0  0  0  0  0  0  0  0  0  0
   16.2311  -18.8111    0.0000 C   0  0  0  0  0  0  0  0  0  0  0  0
   15.5166  -18.3984    0.0000 N   0  0  0  0  0  0  0  0  0  0  0  0
   14.8020  -18.8108    0.0000 C   0  0  0  0  0  0  0  0  0  0  0  0
   15.5168  -17.5735    0.0000 C   0  0  0  0  0  0  0  0  0  0  0  0
   17.6600  -18.8115    0.0000 C   0  0  0  0  0  0  0  0  0  0  0  0
   17.6563  -19.6343    0.0000 C   0  0  0  0  0  0  0  0  0  0  0  0
   18.3666  -20.0468    0.0000 C   0  0  0  0  0  0  0  0  0  0  0  0
   19.0836  -19.6381    0.0000 C   0  0  0  0  0  0  0  0  0  0  0  0
   19.0857  -18.8121    0.0000 C   0  0  0  0  0  0  0  0  0  0  0  0
   18.3710  -18.3950    0.0000 C   0  0  0  0  0  0  0  0  0  0  0  0
   17.6545  -17.9836    0.0000 O   0  0  0  0  0  0  0  0  0  0  0  0
   18.3708  -15.9139    0.0000 C   0  0  0  0  0  0  0  0  0  0  0  0
   19.0856  -16.3242    0.0000 C   0  0  0  0  0  0  0  0  0  0  0  0
   19.7999  -15.9094    0.0000 C   0  0  0  0  0  0  0  0  0  0  0  0
   19.7948  -15.0802    0.0000 C   0  0  0  0  0  0  0  0  0  0  0  0
   19.0793  -14.6736    0.0000 C   0  0  0  0  0  0  0  0  0  0  0  0
   20.5161  -16.3188    0.0000 C   0  0  0  0  0  0  0  0  0  0  0  0
  1  2  2  0
  2  3  1  0
  3  4  2  0
  4  5  1  0
  5  6  2  0
  6  1  1  0
  6  7  1  0
  7  8  1  0
  8  9  2  0
  8 10  1  0
  3 11  1  0
 11 12  1  0
 12 13  1  0
 13 14  1  0
 13 15  1  0
 11 16  1  0
 16 17  1  0
 16 21  1  0
 17 18  1  0
 18 19  1  0
 19 20  1  0
 20 21  1  0
 16 22  1  0
 10 23  2  0
 23 24  1  0
 24 25  2  0
 25 26  1  0
 26 27  2  0
 27 10  1  0
 25 28  1  0
M  END

> <chembl_id>
CHEMBL4227736

> <chembl_pref_name>
ANSOFAXINE

$$$$

     RDKit          2D

 21 23  0  0  0  0  0  0  0  0999 V2000
    5.6542   -5.9250    0.0000 N   0  0  0  0  0  0  0  0  0  0  0  0
    6.3000   -5.6167    0.0000 C   0  0  0  0  0  0  0  0  0  0  0  0
    5.0167   -5.6042    0.0000 C   0  0  0  0  0  0  0  0  0  0  0  0
    6.4667   -4.9292    0.0000 C   0  0  0  0  0  0  0  0  0  0  0  0
    4.8750   -4.9042    0.0000 C   0  0  0  0  0  0  0  0  0  0  0  0
    6.0417   -4.3792    0.0000 C   0  0  0  0  0  0  0  0  0  0  0  0
    5.3292   -4.3625    0.0000 C   0  0  0  0  0  0  0  0  0  0  0  0
    5.6500   -6.6167    0.0000 C   0  0  0  0  0  0  0  0  0  0  0  0
    5.0250   -6.9667    0.0000 C   0  0  0  0  0  0  0  0  0  0  0  0
    4.3875   -8.0250    0.0000 N   0  0  0  0  0  0  0  0  0  0  0  0
    4.5042   -6.0750    0.0000 C   0  0  0  0  0  0  0  0  0  0  0  0
    6.8167   -6.1125    0.0000 C   0  0  0  0  0  0  0  0  0  0  0  0
    5.0042   -7.6792    0.0000 C   0  0  0  0  0  0  0  0  0  0  0  0
    4.2000   -4.6917    0.0000 C   0  0  0  0  0  0  0  0  0  0  0  0
    7.1542   -4.7292    0.0000 C   0  0  0  0  0  0  0  0  0  0  0  0
    4.3792   -8.7375    0.0000 C   0  0  0  0  0  0  0  0  0  0  0  0
    3.7792   -7.6625    0.0000 C   0  0  0  0  0  0  0  0  0  0  0  0
    3.8250   -5.8542    0.0000 C   0  0  0  0  0  0  0  0  0  0  0  0
    7.4917   -5.9167    0.0000 C   0  0  0  0  0  0  0  0  0  0  0  0
    7.6667   -5.2292    0.0000 C   0  0  0  0  0  0  0  0  0  0  0  0
    3.6750   -5.1542    0.0000 C   0  0  0  0  0  0  0  0  0  0  0  0
  2  1  1  0
  3  1  1  0
  4  2  2  0
  5  3  1  0
  6  4  1  0
  7  5  1  0
  8  1  1  0
  9  8  1  0
 10 13  1  0
 11  3  2  0
 12  2  1  0
 13  9  1  0
 14  5  2  0
 15  4  1  0
 16 10  1  0
 17 10  1  0
 18 11  1  0
 19 12  2  0
 20 19  1  0
 21 18  2  0
  7  6  1  0
 21 14  1  0
 20 15  2  0
M  END

> <chembl_id>
CHEMBL11

> <chembl_pref_name>
IMIPRAMINE

$$$$

     RDKit          2D

 22 24  0  0  0  0  0  0  0  0999 V2000
    4.1875  -11.4250    0.0000 N   0  0  0  0  0  0  0  0  0  0  0  0
    3.5042  -10.8917    0.0000 C   0  0  0  0  0  0  0  0  0  0  0  0
    4.9875  -11.2250    0.0000 C   0  0  0  0  0  0  0  0  0  0  0  0
    2.8250  -11.2792    0.0000 C   0  0  0  0  0  0  0  0  0  0  0  0
    3.5000  -10.0917    0.0000 C   0  0  0  0  0  0  0  0  0  0  0  0
    4.9542  -14.2917    0.0000 N   0  0  0  0  0  0  0  0  0  0  0  0
    5.3292  -10.4667    0.0000 C   0  0  0  0  0  0  0  0  0  0  0  0
    4.1292   -9.5792    0.0000 C   0  0  0  0  0  0  0  0  0  0  0  0
    4.9292   -9.7167    0.0000 C   0  0  0  0  0  0  0  0  0  0  0  0
    3.9667  -12.2500    0.0000 C   0  0  0  0  0  0  0  0  0  0  0  0
    2.8250   -9.7042    0.0000 C   0  0  0  0  0  0  0  0  0  0  0  0
    2.1417  -10.8875    0.0000 C   0  0  0  0  0  0  0  0  0  0  0  0
    4.5667  -12.8542    0.0000 C   0  0  0  0  0  0  0  0  0  0  0  0
    2.1417  -10.1042    0.0000 C   0  0  0  0  0  0  0  0  0  0  0  0
    1.4625  -11.2750    0.0000 Cl  0  0  0  0  0  0  0  0  0  0  0  0
    4.3417  -13.6875    0.0000 C   0  0  0  0  0  0  0  0  0  0  0  0
    5.4750  -11.9042    0.0000 C   0  0  0  0  0  0  0  0  0  0  0  0
    4.3417  -14.9000    0.0000 C   0  0  0  0  0  0  0  0  0  0  0  0
    5.7000  -14.7250    0.0000 C   0  0  0  0  0  0  0  0  0  0  0  0
    6.1625  -10.3792    0.0000 C   0  0  0  0  0  0  0  0  0  0  0  0
    6.3042  -11.8167    0.0000 C   0  0  0  0  0  0  0  0  0  0  0  0
    6.6500  -11.0542    0.0000 C   0  0  0  0  0  0  0  0  0  0  0  0
  2  1  1  0
  3  1  1  0
  4  2  2  0
  5  2  1  0
  6 16  1  0
  7  3  2  0
  8  5  1  0
  9  7  1  0
 10  1  1  0
 11  5  2  0
 12  4  1  0
 13 10  1  0
 14 11  1  0
 15 12  1  0
 16 13  1  0
 17  3  1  0
 18  6  1  0
 19  6  1  0
 20  7  1  0
 21 17  2  0
 22 21  1  0
  8  9  1  0
 20 22  2  0
 12 14  2  0
M  END

> <chembl_id>
CHEMBL415

> <chembl_pref_name>
CLOMIPRAMINE

$$$$

     RDKit          2D

 23 24  0  0  0  0  0  0  0  0999 V2000
    9.9770    1.5575    0.0000 S   0  0  0  0  0  0  0  0  0  0  0  0
   12.1299    1.1544    0.0000 C   0  0  0  0  0  0  0  0  0  0  0  0
   12.8354    1.5712    0.0000 C   0  0  0  0  0  0  0  0  0  0  0  0
   10.6916    1.1452    0.0000 C   0  0  0  0  0  0  0  0  0  0  0  0
   11.4062    1.5666    0.0000 C   0  0  0  0  0  0  0  0  0  0  0  0
   15.6526    1.6628    0.0000 N   0  0  0  0  0  0  0  0  0  0  0  0
   13.5591    1.1681    0.0000 N   0  0  0  0  0  0  0  0  0  0  0  0
   10.3892    2.2721    0.0000 O   0  0  0  0  0  0  0  0  0  0  0  0
    9.5601    2.2721    0.0000 O   0  0  0  0  0  0  0  0  0  0  0  0
   12.1299    0.3207    0.0000 C   0  0  0  0  0  0  0  0  0  0  0  0
    9.2577    1.1452    0.0000 N   0  0  0  0  0  0  0  0  0  0  0  0
   14.9883    1.1681    0.0000 C   0  0  0  0  0  0  0  0  0  0  0  0
   12.8354    2.3958    0.0000 O   0  0  0  0  0  0  0  0  0  0  0  0
   14.2737    1.5804    0.0000 C   0  0  0  0  0  0  0  0  0  0  0  0
   10.6916    0.3207    0.0000 C   0  0  0  0  0  0  0  0  0  0  0  0
   11.4062   -0.0962    0.0000 C   0  0  0  0  0  0  0  0  0  0  0  0
   16.3259    1.1681    0.0000 C   0  0  0  0  0  0  0  0  0  0  0  0
   12.8445   -0.0916    0.0000 O   0  0  0  0  0  0  0  0  0  0  0  0
   15.6526    2.4874    0.0000 C   0  0  0  0  0  0  0  0  0  0  0  0
   16.0740    0.3848    0.0000 C   0  0  0  0  0  0  0  0  0  0  0  0
   15.2403    0.3848    0.0000 C   0  0  0  0  0  0  0  0  0  0  0  0
   12.8445   -0.9161    0.0000 C   0  0  0  0  0  0  0  0  0  0  0  0
   16.3672    2.8996    0.0000 C   0  0  0  0  0  0  0  0  0  0  0  0
  2  5  2  0
  3  2  1  0
  4  1  1  0
  5  4  1  0
  6 12  1  0
  7  3  1  0
  8  1  2  0
  9  1  2  0
 10 16  2  0
 11  1  1  0
 12 14  1  0
 13  3  2  0
 14  7  1  0
 15  4  2  0
 16 15  1  0
 17  6  1  0
 18 10  1  0
 19  6  1  0
 20 21  1  0
 21 12  1  0
 22 18  1  0
 23 19  1  0
 10  2  1  0
 20 17  1  0
M  END

> <chembl_id>
CHEMBL26

> <chembl_pref_name>
SULPIRIDE

$$$$

     RDKit          2D

 22 23  0  0  0  0  0  0  0  0999 V2000
   -2.3447   -3.1374    0.0000 C   0  0  0  0  0  0  0  0  0  0  0  0
   -1.3074   -3.7406    0.0000 N   0  0  0  0  0  0  0  0  0  0  0  0
   -0.0048   -2.9950    0.0000 C   0  0  0  0  0  0  0  0  0  0  0  0
    1.2926   -3.7495    0.0000 C   0  0  0  0  0  0  0  0  0  0  0  0
    2.5951   -3.0039    0.0000 C   0  0  0  0  0  0  0  0  0  0  0  0
    2.5973   -1.5030    0.0000 O   0  0  0  0  0  0  0  0  0  0  0  0
    1.2990   -0.7500    0.0000 C   0  0  0  0  0  0  0  0  0  0  0  0
    1.2990    0.7500    0.0000 C   0  0  0  0  0  0  0  0  0  0  0  0
    0.0000    1.5000    0.0000 C   0  0  0  0  0  0  0  0  0  0  0  0
   -1.2990    0.7500    0.0000 C   0  0  0  0  0  0  0  0  0  0  0  0
   -1.2990   -0.7500    0.0000 C   0  0  0  0  0  0  0  0  0  0  0  0
    0.0000   -1.5000    0.0000 C   0  0  0  0  0  0  0  0  0  0  0  0
   -2.5988    1.5004    0.0000 C   0  0  0  0  0  0  0  0  0  0  0  0
   -2.5996    2.7004    0.0000 F   0  0  0  0  0  0  0  0  0  0  0  0
   -3.6378    0.9001    0.0000 F   0  0  0  0  0  0  0  0  0  0  0  0
   -3.6383    2.0999    0.0000 F   0  0  0  0  0  0  0  0  0  0  0  0
    3.8934   -3.7569    0.0000 C   0  0  0  0  0  0  0  0  0  0  0  0
    5.1961   -3.0132    0.0000 C   0  0  0  0  0  0  0  0  0  0  0  0
    6.4915   -3.7695    0.0000 C   0  0  0  0  0  0  0  0  0  0  0  0
    6.4843   -5.2694    0.0000 C   0  0  0  0  0  0  0  0  0  0  0  0
    5.1817   -6.0132    0.0000 C   0  0  0  0  0  0  0  0  0  0  0  0
    3.8862   -5.2570    0.0000 C   0  0  0  0  0  0  0  0  0  0  0  0
  1  2  1  0
  2  3  1  0
  3  4  1  0
  4  5  1  0
  5  6  1  0
  6  7  1  0
  7  8  2  0
  8  9  1  0
  9 10  2  0
 10 11  1  0
 11 12  2  0
 12  7  1  0
 10 13  1  0
 13 14  1  0
 13 15  1  0
 13 16  1  0
  5 17  1  0
 17 18  2  0
 18 19  1  0
 19 20  2  0
 20 21  1  0
 21 22  2  0
 22 17  1  0
M  END

> <chembl_id>
CHEMBL41

> <chembl_pref_name>
FLUOXETINE

$$$$

     RDKit          2D

 20 22  0  0  0  0  0  0  0  0999 V2000
    6.6622   -4.1979    0.0000 C   0  0  0  0  0  0  0  0  0  0  0  0
    5.4929   -3.9285    0.0000 N   0  0  0  0  0  0  0  0  0  0  0  0
    5.0525   -2.4938    0.0000 C   0  0  0  0  0  0  0  0  0  0  0  0
    3.5900   -2.1568    0.0000 C   0  0  0  0  0  0  0  0  0  0  0  0
    3.1497   -0.7220    0.0000 C   0  0  0  0  0  0  0  0  0  0  0  0
    1.6852   -0.3846    0.0000 C   0  0  0  0  0  0  0  0  0  0  0  0
    1.3514    1.0778    0.0000 C   0  0  0  0  0  0  0  0  0  0  0  0
    2.5913    1.9239    0.0000 C   0  0  0  0  0  0  0  0  0  0  0  0
    2.4792    3.4197    0.0000 C   0  0  0  0  0  0  0  0  0  0  0  0
    1.1278    4.0705    0.0000 C   0  0  0  0  0  0  0  0  0  0  0  0
   -0.1116    3.2255    0.0000 C   0  0  0  0  0  0  0  0  0  0  0  0
    0.0000    1.7286    0.0000 C   0  0  0  0  0  0  0  0  0  0  0  0
   -1.3515    1.0777    0.0000 C   0  0  0  0  0  0  0  0  0  0  0  0
   -1.6852   -0.3847    0.0000 C   0  0  0  0  0  0  0  0  0  0  0  0
   -0.7500   -1.5574    0.0000 C   0  0  0  0  0  0  0  0  0  0  0  0
   -1.5000   -2.8577    0.0000 C   0  0  0  0  0  0  0  0  0  0  0  0
   -0.7500   -4.1567    0.0000 C   0  0  0  0  0  0  0  0  0  0  0  0
    0.7500   -4.1567    0.0000 C   0  0  0  0  0  0  0  0  0  0  0  0
    1.5000   -2.8577    0.0000 C   0  0  0  0  0  0  0  0  0  0  0  0
    0.7500   -1.5574    0.0000 C   0  0  0  0  0  0  0  0  0  0  0  0
  1  2  1  0
  2  3  1  0
  3  4  1  0
  4  5  1  0
  5  6  2  0
  6  7  1  0
  7  8  2  0
  8  9  1  0
  9 10  2  0
 10 11  1  0
 11 12  2  0
 12  7  1  0
 12 13  1  0
 13 14  1  0
 14 15  1  0
 15 16  2  0
 16 17  1  0
 17 18  2  0
 18 19  1  0
 19 20  2  0
 20  6  1  0
 20 15  1  0
M  END

> <chembl_id>
CHEMBL445

> <chembl_pref_name>
NORTRIPTYLINE

$$$$

     RDKit          2D

 21 22  0  0  0  0  0  0  0  0999 V2000
    7.5289   -7.3402    0.0000 N   0  0  0  0  0  0  0  0  0  0  0  0
    8.2453   -6.9269    0.0000 C   0  0  0  0  0  0  0  0  0  0  0  0
    8.2425   -6.0963    0.0000 C   0  0  0  0  0  0  0  0  0  0  0  0
    7.5271   -5.6872    0.0000 C   0  0  0  0  0  0  0  0  0  0  0  0
    6.8141   -6.9273    0.0000 C   0  0  0  0  0  0  0  0  0  0  0  0
    6.8153   -6.1030    0.0000 C   0  0  0  0  0  0  0  0  0  0  0  0
    6.0317   -5.8471    0.0000 C   0  0  0  0  0  0  0  0  0  0  0  0
    5.5461   -6.5133    0.0000 N   0  0  0  0  0  0  0  0  0  0  0  0
    6.0297   -7.1808    0.0000 N   0  0  0  0  0  0  0  0  0  0  0  0
    5.7736   -7.9651    0.0000 C   0  0  0  0  0  0  0  0  0  0  0  0
    4.9664   -8.1354    0.0000 C   0  0  0  0  0  0  0  0  0  0  0  0
    8.9569   -5.6809    0.0000 C   0  0  0  0  0  0  0  0  0  0  0  0
    9.6730   -6.0907    0.0000 O   0  0  0  0  0  0  0  0  0  0  0  0
    8.9538   -4.8559    0.0000 O   0  0  0  0  0  0  0  0  0  0  0  0
    7.5233   -4.8622    0.0000 N   0  0  0  0  0  0  0  0  0  0  0  0
    9.6761   -6.9157    0.0000 C   0  0  0  0  0  0  0  0  0  0  0  0
   10.3921   -7.3255    0.0000 C   0  0  0  0  0  0  0  0  0  0  0  0
    6.8069   -4.4530    0.0000 C   0  0  0  0  0  0  0  0  0  0  0  0
    6.8031   -3.6280    0.0000 C   0  0  0  0  0  0  0  0  0  0  0  0
    6.0868   -3.2188    0.0000 C   0  0  0  0  0  0  0  0  0  0  0  0
    6.0830   -2.3938    0.0000 C   0  0  0  0  0  0  0  0  0  0  0  0
  9 10  1  0
  5  6  2  0
 10 11  1  0
  1  2  2  0
  5  1  1  0
  2  3  1  0
 12 13  1  0
 12 14  2  0
  3 12  1  0
  4 15  1  0
  3  4  2  0
 13 16  1  0
  6  7  1  0
 16 17  1  0
  7  8  2  0
 15 18  1  0
  8  9  1  0
 18 19  1  0
  9  5  1  0
 19 20  1  0
  4  6  1  0
 20 21  1  0
M  END

> <chembl_id>
CHEMBL8184

> <chembl_pref_name>
CARTAZOLATE

$$$$

     RDKit          2D

 14 16  0  0  0  0  0  0  0  0999 V2000
   12.0500   -4.7042    0.0000 N   0  0  0  0  0  0  0  0  0  0  0  0
   12.2375   -3.9042    0.0000 C   0  0  0  0  0  0  0  0  0  0  0  0
   11.5292   -3.4792    0.0000 C   0  0  0  0  0  0  0  0  0  0  0  0
   11.2292   -4.7750    0.0000 C   0  0  0  0  0  0  0  0  0  0  0  0
   10.9125   -4.0167    0.0000 C   0  0  0  0  0  0  0  0  0  0  0  0
   13.7292   -3.9250    0.0000 N   0  0  0  0  0  0  0  0  0  0  0  0
   13.0042   -3.5125    0.0000 C   0  0  0  0  0  0  0  0  0  0  0  0
   12.5542   -5.3542    0.0000 C   0  0  0  0  0  0  0  0  0  0  0  0
   13.3792   -5.3667    0.0000 C   0  0  0  0  0  0  0  0  0  0  0  0
   10.7292   -5.4250    0.0000 C   0  0  0  0  0  0  0  0  0  0  0  0
   13.9042   -4.7292    0.0000 C   0  0  0  0  0  0  0  0  0  0  0  0
   10.1000   -3.9125    0.0000 C   0  0  0  0  0  0  0  0  0  0  0  0
    9.9250   -5.3250    0.0000 C   0  0  0  0  0  0  0  0  0  0  0  0
    9.6042   -4.5667    0.0000 C   0  0  0  0  0  0  0  0  0  0  0  0
  2  1  1  0
  3  2  2  0
  4  1  1  0
  5  4  2  0
  6  7  1  0
  7  2  1  0
  8  1  1  0
  9  8  1  0
 10  4  1  0
 11  9  1  0
 12  5  1  0
 13 10  2  0
 14 13  1  0
  3  5  1  0
  6 11  1  0
 12 14  2  0
M  END

> <chembl_id>
CHEMBL10758

> <chembl_pref_name>
AZEPINDOLE

$$$$

     RDKit          2D

 18 20  0  0  0  0  0  0  0  0999 V2000
   -3.0583   -1.0375    0.0000 C   0  0  0  0  0  0  0  0  0  0  0  0
   -3.0583   -0.3000    0.0000 C   0  0  0  0  0  0  0  0  0  0  0  0
   -2.4083    0.0625    0.0000 C   0  0  0  0  0  0  0  0  0  0  0  0
   -1.7625   -1.0375    0.0000 N   0  0  0  0  0  0  0  0  0  0  0  0
   -2.4083   -1.4042    0.0000 C   0  0  0  0  0  0  0  0  0  0  0  0
   -1.7625   -0.3000    0.0000 C   0  0  0  0  0  0  0  0  0  0  0  0
   -3.7000   -1.4042    0.0000 C   0  0  0  0  0  0  0  0  0  0  0  0
   -2.4083    0.7958    0.0000 C   0  0  0  0  0  0  0  0  0  0  0  0
   -3.7000   -2.1292    0.0000 N   0  0  0  0  0  0  0  0  0  0  0  0
   -3.7000    0.0625    0.0000 C   0  0  0  0  0  0  0  0  0  0  0  0
   -1.1333   -1.3917    0.0000 C   0  0  0  0  0  0  0  0  0  0  0  0
   -4.3458   -0.3000    0.0000 C   0  0  0  0  0  0  0  0  0  0  0  0
   -4.3458   -1.0375    0.0000 C   0  0  0  0  0  0  0  0  0  0  0  0
   -1.8000    1.1458    0.0000 C   0  0  0  0  0  0  0  0  0  0  0  0
   -3.0625    1.1458    0.0000 C   0  0  0  0  0  0  0  0  0  0  0  0
   -3.0625    1.8833    0.0000 C   0  0  0  0  0  0  0  0  0  0  0  0
   -1.8000    1.9208    0.0000 C   0  0  0  0  0  0  0  0  0  0  0  0
   -2.4208    2.2708    0.0000 C   0  0  0  0  0  0  0  0  0  0  0  0
  2  1  1  0
  3  2  1  0
  4  5  1  0
  5  1  1  0
  6  4  1  0
  7  1  2  0
  8  3  1  0
  9  7  1  0
 10  2  2  0
 11  4  1  0
 12 13  2  0
 13  7  1  0
 14  8  2  0
 15  8  1  0
 16 15  2  0
 17 14  1  0
 18 16  1  0
 10 12  1  0
  3  6  1  0
 17 18  2  0
M  END

> <chembl_id>
CHEMBL273575

> <chembl_pref_name>
NOMIFENSINE

$$$$

     RDKit          2D

 21 22  0  0  0  0  0  0  0  0999 V2000
    6.1109   -4.1386    0.0000 N   0  0  0  0  0  0  0  0  0  0  0  0
    6.8249   -4.5370    0.0000 C   0  0  0  0  0  0  0  0  0  0  0  0
    5.3968   -4.5516    0.0000 C   0  0  0  0  0  0  0  0  0  0  0  0
    5.3968   -5.3822    0.0000 C   0  0  0  0  0  0  0  0  0  0  0  0
    7.0727   -5.3239    0.0000 C   0  0  0  0  0  0  0  0  0  0  0  0
    6.1060   -3.3129    0.0000 C   0  0  0  0  0  0  0  0  0  0  0  0
    4.6827   -5.7999    0.0000 C   0  0  0  0  0  0  0  0  0  0  0  0
    6.6355   -6.0234    0.0000 N   0  0  0  0  0  0  0  0  0  0  0  0
    3.9687   -5.3822    0.0000 C   0  0  0  0  0  0  0  0  0  0  0  0
    4.6827   -4.1435    0.0000 C   0  0  0  0  0  0  0  0  0  0  0  0
    6.8200   -2.9000    0.0000 O   0  0  0  0  0  0  0  0  0  0  0  0
    3.9687   -4.5613    0.0000 C   0  0  0  0  0  0  0  0  0  0  0  0
    4.6827   -6.6209    0.0000 Cl  0  0  0  0  0  0  0  0  0  0  0  0
    3.2546   -5.7999    0.0000 Cl  0  0  0  0  0  0  0  0  0  0  0  0
    7.4953   -4.0561    0.0000 C   0  0  0  0  0  0  0  0  0  0  0  0
    7.8984   -5.3336    0.0000 C   0  0  0  0  0  0  0  0  0  0  0  0
    5.3919   -2.9049    0.0000 C   0  0  0  0  0  0  0  0  0  0  0  0
    8.1607   -4.5516    0.0000 C   0  0  0  0  0  0  0  0  0  0  0  0
    5.8048   -6.0040    0.0000 C   0  0  0  0  0  0  0  0  0  0  0  0
    7.0240   -6.7521    0.0000 C   0  0  0  0  0  0  0  0  0  0  0  0
    5.3822   -2.0742    0.0000 C   0  0  0  0  0  0  0  0  0  0  0  0
  2  1  1  0
  3  1  1  0
  4  3  1  0
  5  2  1  0
  6  1  1  0
  7  4  2  0
  5  8  1  0
  9  7  1  0
 10  3  2  0
 11  6  2  0
 12 10  1  0
 13  7  1  0
 14  9  1  0
 15  2  1  0
 16  5  1  0
 17  6  1  0
 18 15  1  0
 19  8  1  0
 20  8  1  0
 21 17  1  0
  9 12  2  0
 16 18  1  0
M  END

> <chembl_id>
CHEMBL20679

> <chembl_pref_name>
ECLANAMINE

$$$$

     RDKit          2D

 26 29  0  0  0  0  0  0  0  0999 V2000
    5.9792  -14.5167    0.0000 N   0  0  0  0  0  0  0  0  0  0  0  0
    5.7292  -15.3000    0.0000 C   0  0  0  0  0  0  0  0  0  0  0  0
    4.9042  -15.3000    0.0000 N   0  0  0  0  0  0  0  0  0  0  0  0
    5.3167  -14.0292    0.0000 C   0  0  0  0  0  0  0  0  0  0  0  0
    4.6500  -14.5125    0.0000 N   0  0  0  0  0  0  0  0  0  0  0  0
    0.7792  -16.7125    0.0000 N   0  0  0  0  0  0  0  0  0  0  0  0
    6.7375  -14.1792    0.0000 C   0  0  0  0  0  0  0  0  0  0  0  0
   -0.0458  -16.7125    0.0000 C   0  0  0  0  0  0  0  0  0  0  0  0
    2.4250  -16.7167    0.0000 N   0  0  0  0  0  0  0  0  0  0  0  0
    6.2167  -15.9667    0.0000 O   0  0  0  0  0  0  0  0  0  0  0  0
   -0.4583  -17.4250    0.0000 C   0  0  0  0  0  0  0  0  0  0  0  0
    5.4042  -13.2125    0.0000 C   0  0  0  0  0  0  0  0  0  0  0  0
    1.1792  -15.9917    0.0000 C   0  0  0  0  0  0  0  0  0  0  0  0
    1.1875  -17.4292    0.0000 C   0  0  0  0  0  0  0  0  0  0  0  0
    6.8250  -13.3625    0.0000 C   0  0  0  0  0  0  0  0  0  0  0  0
    4.4875  -16.0125    0.0000 C   0  0  0  0  0  0  0  0  0  0  0  0
    6.1542  -12.8792    0.0000 C   0  0  0  0  0  0  0  0  0  0  0  0
    2.0042  -16.0000    0.0000 C   0  0  0  0  0  0  0  0  0  0  0  0
    2.0042  -17.4292    0.0000 C   0  0  0  0  0  0  0  0  0  0  0  0
   -1.2833  -17.4250    0.0000 C   0  0  0  0  0  0  0  0  0  0  0  0
    3.6625  -16.0042    0.0000 C   0  0  0  0  0  0  0  0  0  0  0  0
    3.2500  -16.7167    0.0000 C   0  0  0  0  0  0  0  0  0  0  0  0
   -1.6958  -18.1375    0.0000 Cl  0  0  0  0  0  0  0  0  0  0  0  0
   -0.4583  -16.0000    0.0000 C   0  0  0  0  0  0  0  0  0  0  0  0
   -1.2833  -16.0042    0.0000 C   0  0  0  0  0  0  0  0  0  0  0  0
   -1.6958  -16.7167    0.0000 C   0  0  0  0  0  0  0  0  0  0  0  0
  2  1  1  0
  3  2  1  0
  4  1  1  0
  5  4  2  0
  6 14  1  0
  7  1  1  0
  8  6  1  0
  9 22  1  0
 10  2  2  0
 11  8  1  0
 12  4  1  0
 13 18  1  0
 14 19  1  0
 15  7  2  0
 16  3  1  0
 17 15  1  0
 18  9  1  0
 19  9  1  0
 20 11  2  0
 21 16  1  0
 22 21  1  0
 23 20  1  0
 24  8  2  0
 25 24  1  0
 26 25  2  0
  5  3  1  0
 17 12  2  0
 13  6  1  0
 26 20  1  0
M  END

> <chembl_id>
CHEMBL621

> <chembl_pref_name>
TRAZODONE

$$$$

     RDKit          2D

 33 36  0  0  0  0  0  0  0  0999 V2000
    1.0531   -8.6175    0.0000 C   0  0  0  0  0  0  0  0  0  0  0  0
    2.2459   -8.7488    0.0000 C   0  0  0  0  0  0  0  0  0  0  0  0
    3.1332   -7.5416    0.0000 C   0  0  0  0  0  0  0  0  0  0  0  0
    2.6747   -6.1134    0.0000 N   0  0  0  0  0  0  0  0  0  0  0  0
    3.8912   -5.2578    0.0000 N   0  0  0  0  0  0  0  0  0  0  0  0
    3.8933   -3.7570    0.0000 C   0  0  0  0  0  0  0  0  0  0  0  0
    2.5951   -3.0039    0.0000 C   0  0  0  0  0  0  0  0  0  0  0  0
    2.5973   -1.5031    0.0000 C   0  0  0  0  0  0  0  0  0  0  0  0
    1.2990   -0.7500    0.0000 N   0  0  0  0  0  0  0  0  0  0  0  0
    1.2990    0.7500    0.0000 C   0  0  0  0  0  0  0  0  0  0  0  0
    0.0000    1.5000    0.0000 C   0  0  0  0  0  0  0  0  0  0  0  0
   -1.2990    0.7500    0.0000 N   0  0  0  0  0  0  0  0  0  0  0  0
   -1.2990   -0.7500    0.0000 C   0  0  0  0  0  0  0  0  0  0  0  0
    0.0000   -1.5000    0.0000 C   0  0  0  0  0  0  0  0  0  0  0  0
   -2.5987    1.5004    0.0000 C   0  0  0  0  0  0  0  0  0  0  0  0
   -2.6012    3.0004    0.0000 C   0  0  0  0  0  0  0  0  0  0  0  0
   -3.9015    3.7484    0.0000 C   0  0  0  0  0  0  0  0  0  0  0  0
   -5.1993    2.9963    0.0000 C   0  0  0  0  0  0  0  0  0  0  0  0
   -5.1969    1.4963    0.0000 C   0  0  0  0  0  0  0  0  0  0  0  0
   -6.2352    0.8946    0.0000 Cl  0  0  0  0  0  0  0  0  0  0  0  0
   -3.8967    0.7484    0.0000 C   0  0  0  0  0  0  0  0  0  0  0  0
    5.1017   -6.1218    0.0000 C   0  0  0  0  0  0  0  0  0  0  0  0
    6.2421   -5.7482    0.0000 O   0  0  0  0  0  0  0  0  0  0  0  0
    4.6332   -7.5468    0.0000 N   0  0  0  0  0  0  0  0  0  0  0  0
    5.5071   -8.7638    0.0000 C   0  0  0  0  0  0  0  0  0  0  0  0
    4.8900  -10.1319    0.0000 C   0  0  0  0  0  0  0  0  0  0  0  0
    5.7654  -11.3509    0.0000 O   0  0  0  0  0  0  0  0  0  0  0  0
    5.1482  -12.7190    0.0000 C   0  0  0  0  0  0  0  0  0  0  0  0
    6.0214  -13.9387    0.0000 C   0  0  0  0  0  0  0  0  0  0  0  0
    5.4018  -15.3047    0.0000 C   0  0  0  0  0  0  0  0  0  0  0  0
    3.9089  -15.4511    0.0000 C   0  0  0  0  0  0  0  0  0  0  0  0
    3.0357  -14.2315    0.0000 C   0  0  0  0  0  0  0  0  0  0  0  0
    3.6553  -12.8655    0.0000 C   0  0  0  0  0  0  0  0  0  0  0  0
  1  2  1  0
  2  3  1  0
  3  4  2  0
  4  5  1  0
  5  6  1  0
  6  7  1  0
  7  8  1  0
  8  9  1  0
  9 10  1  0
 10 11  1  0
 11 12  1  0
 12 13  1  0
 13 14  1  0
 14  9  1  0
 12 15  1  0
 15 16  2  0
 16 17  1  0
 17 18  2  0
 18 19  1  0
 19 20  1  0
 19 21  2  0
 21 15  1  0
  5 22  1  0
 22 23  2  0
 22 24  1  0
 24  3  1  0
 24 25  1  0
 25 26  1  0
 26 27  1  0
 27 28  1  0
 28 29  2  0
 29 30  1  0
 30 31  2  0
 31 32  1  0
 32 33  2  0
 33 28  1  0
M  END

> <chembl_id>
CHEMBL623

> <chembl_pref_name>
NEFAZODONE

$$$$

     RDKit          2D

 21 23  0  0  0  0  0  0  0  0999 V2000
    6.6622   -4.1979    0.0000 C   0  0  0  0  0  0  0  0  0  0  0  0
    5.4929   -3.9285    0.0000 N   0  0  0  0  0  0  0  0  0  0  0  0
    4.6751   -4.8068    0.0000 C   0  0  0  0  0  0  0  0  0  0  0  0
    5.0525   -2.4938    0.0000 C   0  0  0  0  0  0  0  0  0  0  0  0
    3.5900   -2.1568    0.0000 C   0  0  0  0  0  0  0  0  0  0  0  0
    3.1497   -0.7220    0.0000 C   0  0  0  0  0  0  0  0  0  0  0  0
    1.6852   -0.3846    0.0000 C   0  0  0  0  0  0  0  0  0  0  0  0
    1.3514    1.0778    0.0000 C   0  0  0  0  0  0  0  0  0  0  0  0
    2.5913    1.9239    0.0000 C   0  0  0  0  0  0  0  0  0  0  0  0
    2.4792    3.4197    0.0000 C   0  0  0  0  0  0  0  0  0  0  0  0
    1.1278    4.0705    0.0000 C   0  0  0  0  0  0  0  0  0  0  0  0
   -0.1116    3.2255    0.0000 C   0  0  0  0  0  0  0  0  0  0  0  0
    0.0000    1.7286    0.0000 C   0  0  0  0  0  0  0  0  0  0  0  0
   -1.3515    1.0777    0.0000 C   0  0  0  0  0  0  0  0  0  0  0  0
   -1.6852   -0.3847    0.0000 C   0  0  0  0  0  0  0  0  0  0  0  0
   -0.7500   -1.5574    0.0000 C   0  0  0  0  0  0  0  0  0  0  0  0
   -1.5000   -2.8577    0.0000 C   0  0  0  0  0  0  0  0  0  0  0  0
   -0.7500   -4.1567    0.0000 C   0  0  0  0  0  0  0  0  0  0  0  0
    0.7500   -4.1567    0.0000 C   0  0  0  0  0  0  0  0  0  0  0  0
    1.5000   -2.8577    0.0000 C   0  0  0  0  0  0  0  0  0  0  0  0
    0.7500   -1.5574    0.0000 C   0  0  0  0  0  0  0  0  0  0  0  0
  1  2  1  0
  2  3  1  0
  2  4  1  0
  4  5  1  0
  5  6  1  0
  6  7  2  0
  7  8  1  0
  8  9  2  0
  9 10  1  0
 10 11  2  0
 11 12  1  0
 12 13  2  0
 13  8  1  0
 13 14  1  0
 14 15  1  0
 15 16  1  0
 16 17  2  0
 17 18  1  0
 18 19  2  0
 19 20  1  0
 20 21  2  0
 21  7  1  0
 21 16  1  0
M  END

> <chembl_id>
CHEMBL629

> <chembl_pref_name>
AMITRIPTYLINE

$$$$

     RDKit          2D

 22 24  0  0  0  0  0  0  0  0999 V2000
   -0.4625   -3.5875    0.0000 N   0  0  0  0  0  0  0  0  0  0  0  0
    0.1792   -3.8917    0.0000 C   0  0  0  0  0  0  0  0  0  0  0  0
   -1.1000   -3.8917    0.0000 C   0  0  0  0  0  0  0  0  0  0  0  0
   -0.4625   -2.8792    0.0000 C   0  0  0  0  0  0  0  0  0  0  0  0
    0.3417   -4.5792    0.0000 C   0  0  0  0  0  0  0  0  0  0  0  0
   -1.2583   -4.5792    0.0000 C   0  0  0  0  0  0  0  0  0  0  0  0
   -1.0875   -2.5250    0.0000 C   0  0  0  0  0  0  0  0  0  0  0  0
   -0.0958   -5.1375    0.0000 C   0  0  0  0  0  0  0  0  0  0  0  0
   -0.8083   -5.1375    0.0000 C   0  0  0  0  0  0  0  0  0  0  0  0
   -1.0833   -1.8125    0.0000 C   0  0  0  0  0  0  0  0  0  0  0  0
   -1.7000   -1.4542    0.0000 N   0  0  0  0  0  0  0  0  0  0  0  0
   -1.6208   -3.4167    0.0000 C   0  0  0  0  0  0  0  0  0  0  0  0
    0.6917   -3.4042    0.0000 C   0  0  0  0  0  0  0  0  0  0  0  0
    1.0250   -4.7917    0.0000 C   0  0  0  0  0  0  0  0  0  0  0  0
   -1.9333   -4.8000    0.0000 C   0  0  0  0  0  0  0  0  0  0  0  0
   -1.6958   -2.8792    0.0000 C   0  0  0  0  0  0  0  0  0  0  0  0
   -2.3208   -1.8167    0.0000 C   0  0  0  0  0  0  0  0  0  0  0  0
   -1.7083   -0.7417    0.0000 C   0  0  0  0  0  0  0  0  0  0  0  0
   -2.2958   -3.6250    0.0000 C   0  0  0  0  0  0  0  0  0  0  0  0
    1.3792   -3.6125    0.0000 C   0  0  0  0  0  0  0  0  0  0  0  0
   -2.4500   -4.3167    0.0000 C   0  0  0  0  0  0  0  0  0  0  0  0
    1.5500   -4.3042    0.0000 C   0  0  0  0  0  0  0  0  0  0  0  0
  2  1  1  0
  3  1  1  0
  4  1  1  0
  5  2  2  0
  6  3  1  0
  7  4  1  0
  8  5  1  0
  9  6  1  0
 10  7  1  0
 11 10  1  0
 12  3  2  0
 13  2  1  0
 14  5  1  0
 15  6  2  0
 16  7  1  0
 17 11  1  0
 18 11  1  0
 19 12  1  0
 20 13  2  0
 21 19  2  0
 22 20  1  0
  9  8  1  0
 21 15  1  0
 22 14  2  0
M  END

> <chembl_id>
CHEMBL644

> <chembl_pref_name>
TRIMIPRAMINE

$$$$

     RDKit          2D

 21 24  0  0  0  0  0  0  0  0999 V2000
    1.3397    0.8907    0.0000 C   0  0  0  0  0  0  0  0  0  0  0  0
    0.5001    4.5012    0.0000 C   0  0  0  0  0  0  0  0  0  0  0  0
    6.2401    4.5005    0.0000 C   0  0  0  0  0  0  0  0  0  0  0  0
    0.5000    3.3965    0.0000 C   0  0  0  0  0  0  0  0  0  0  0  0
    6.2400    3.3959    0.0000 C   0  0  0  0  0  0  0  0  0  0  0  0
    2.6930    1.6719    0.0000 C   0  0  0  0  0  0  0  0  0  0  0  0
    1.4568    5.0534    0.0000 C   0  0  0  0  0  0  0  0  0  0  0  0
    5.2835    5.0529    0.0000 C   0  0  0  0  0  0  0  0  0  0  0  0
    1.4566    2.8441    0.0000 C   0  0  0  0  0  0  0  0  0  0  0  0
    5.2833    2.8437    0.0000 C   0  0  0  0  0  0  0  0  0  0  0  0
    3.7607    4.3766    0.0000 C   0  0  0  0  0  0  0  0  0  0  0  0
    3.3697    2.0625    0.0000 C   0  0  0  0  0  0  0  0  0  0  0  0
    3.7606    3.5203    0.0000 C   0  0  0  0  0  0  0  0  0  0  0  0
    2.6930    0.8906    0.0000 C   0  0  0  0  0  0  0  0  0  0  0  0
    3.3701    5.0533    0.0000 C   0  0  0  0  0  0  0  0  0  0  0  0
    2.4134    4.5009    0.0000 C   0  0  0  0  0  0  0  0  0  0  0  0
    4.3268    4.5007    0.0000 C   0  0  0  0  0  0  0  0  0  0  0  0
    2.4133    3.3963    0.0000 C   0  0  0  0  0  0  0  0  0  0  0  0
    4.3267    3.3961    0.0000 C   0  0  0  0  0  0  0  0  0  0  0  0
    3.3698    2.8438    0.0000 C   0  0  0  0  0  0  0  0  0  0  0  0
    2.0163    0.5000    0.0000 N   0  0  0  0  0  0  0  0  0  0  0  0
  1 21  1  0
  2  4  2  0
  2  7  1  0
  3  5  2  0
  3  8  1  0
  4  9  1  0
  5 10  1  0
  6 12  1  0
  6 14  1  0
  7 16  2  0
  8 17  2  0
  9 18  2  0
 10 19  2  0
 11 13  1  0
 11 15  1  0
 12 20  1  0
 13 20  1  0
 14 21  1  0
 15 16  1  0
 15 17  1  0
 16 18  1  0
 17 19  1  0
 18 20  1  0
 19 20  1  0
M  END

> <chembl_id>
CHEMBL21731

> <chembl_pref_name>
MAPROTILINE

$$$$

     RDKit          2D

 20 22  0  0  0  0  0  0  0  0999 V2000
    3.5625   -5.6417    0.0000 C   0  0  0  0  0  0  0  0  0  0  0  0
    2.9125   -5.3292    0.0000 C   0  0  0  0  0  0  0  0  0  0  0  0
    4.2042   -5.3167    0.0000 C   0  0  0  0  0  0  0  0  0  0  0  0
    3.2042   -4.0667    0.0000 C   0  0  0  0  0  0  0  0  0  0  0  0
    3.9042   -4.0667    0.0000 C   0  0  0  0  0  0  0  0  0  0  0  0
    2.7625   -4.6292    0.0000 C   0  0  0  0  0  0  0  0  0  0  0  0
    4.3500   -4.6292    0.0000 C   0  0  0  0  0  0  0  0  0  0  0  0
    4.8250   -7.7375    0.0000 N   0  0  0  0  0  0  0  0  0  0  0  0
    3.5667   -6.3417    0.0000 C   0  0  0  0  0  0  0  0  0  0  0  0
    2.3917   -5.8042    0.0000 C   0  0  0  0  0  0  0  0  0  0  0  0
    4.7167   -5.7917    0.0000 C   0  0  0  0  0  0  0  0  0  0  0  0
    2.0667   -4.4167    0.0000 C   0  0  0  0  0  0  0  0  0  0  0  0
    5.0375   -4.4167    0.0000 C   0  0  0  0  0  0  0  0  0  0  0  0
    4.2000   -7.3917    0.0000 C   0  0  0  0  0  0  0  0  0  0  0  0
    4.8167   -8.4542    0.0000 C   0  0  0  0  0  0  0  0  0  0  0  0
    4.1917   -6.6792    0.0000 C   0  0  0  0  0  0  0  0  0  0  0  0
    1.7167   -5.6000    0.0000 C   0  0  0  0  0  0  0  0  0  0  0  0
    5.3875   -5.5917    0.0000 C   0  0  0  0  0  0  0  0  0  0  0  0
    5.5500   -4.9125    0.0000 C   0  0  0  0  0  0  0  0  0  0  0  0
    1.5542   -4.9042    0.0000 C   0  0  0  0  0  0  0  0  0  0  0  0
  2  1  1  0
  3  1  1  0
  4  6  1  0
  5  7  1  0
  6  2  2  0
  7  3  2  0
  8 14  1  0
  9  1  1  0
 10  2  1  0
 11  3  1  0
 12  6  1  0
 13  7  1  0
 14 16  1  0
 15  8  1  0
 16  9  1  0
 17 10  2  0
 18 11  2  0
 19 18  1  0
 20 17  1  0
  5  4  2  0
 19 13  2  0
 20 12  2  0
M  END

> <chembl_id>
CHEMBL668

> <chembl_pref_name>
PROTRIPTYLINE

$$$$

     RDKit          2D

 25 29  0  0  0  0  0  0  0  0999 V2000
    1.3356   -1.3791    0.0000 C   0  0  0  0  0  0  0  0  0  0  0  0
    1.3404   -2.1970    0.0000 C   0  0  0  0  0  0  0  0  0  0  0  0
    0.6242   -0.9775    0.0000 C   0  0  0  0  0  0  0  0  0  0  0  0
    2.7631   -3.8470    0.0000 N   0  0  0  0  0  0  0  0  0  0  0  0
    2.0517   -2.6034    0.0000 C   0  0  0  0  0  0  0  0  0  0  0  0
    0.6387   -2.6276    0.0000 C   0  0  0  0  0  0  0  0  0  0  0  0
   -0.0967   -1.3985    0.0000 C   0  0  0  0  0  0  0  0  0  0  0  0
    0.4355   -0.1646    0.0000 O   0  0  0  0  0  0  0  0  0  0  0  0
    2.0614   -3.4309    0.0000 C   0  0  0  0  0  0  0  0  0  0  0  0
    3.5179   -3.5131    0.0000 C   0  0  0  0  0  0  0  0  0  0  0  0
    4.0697   -4.1228    0.0000 C   0  0  0  0  0  0  0  0  0  0  0  0
   -0.7209   -0.8565    0.0000 O   0  0  0  0  0  0  0  0  0  0  0  0
   -0.4016   -0.0920    0.0000 C   0  0  0  0  0  0  0  0  0  0  0  0
   -0.0822   -2.2260    0.0000 C   0  0  0  0  0  0  0  0  0  0  0  0
    3.6583   -4.8245    0.0000 C   0  0  0  0  0  0  0  0  0  0  0  0
    4.8765   -4.3107    0.0000 C   0  0  0  0  0  0  0  0  0  0  0  0
    2.8598   -4.6503    0.0000 C   0  0  0  0  0  0  0  0  0  0  0  0
    2.0469   -0.9582    0.0000 C   0  0  0  0  0  0  0  0  0  0  0  0
    2.7631   -2.1970    0.0000 C   0  0  0  0  0  0  0  0  0  0  0  0
    2.7631   -1.3695    0.0000 C   0  0  0  0  0  0  0  0  0  0  0  0
    5.1064   -5.1056    0.0000 C   0  0  0  0  0  0  0  0  0  0  0  0
    5.4387   -3.7069    0.0000 C   0  0  0  0  0  0  0  0  0  0  0  0
    5.9108   -5.2893    0.0000 C   0  0  0  0  0  0  0  0  0  0  0  0
    6.2372   -3.8996    0.0000 C   0  0  0  0  0  0  0  0  0  0  0  0
    6.4730   -4.6853    0.0000 C   0  0  0  0  0  0  0  0  0  0  0  0
  2  1  2  0
  3  1  1  0
  4  9  1  0
  5  2  1  0
  6  2  1  0
  7  3  2  0
  8  3  1  0
  5  9  1  0
 10  4  1  0
 11 10  1  0
 12  7  1  0
 13  8  1  0
 14  7  1  0
 15 17  1  0
 11 16  1  0
 17  4  1  0
 18  1  1  0
 19 20  1  0
 20 18  1  0
 21 16  2  0
 22 16  1  0
 23 21  1  0
 24 22  2  0
 25 24  1  0
 19  5  1  0
 12 13  1  0
  6 14  2  0
 11 15  1  0
 25 23  2  0
M  END

> <chembl_id>
CHEMBL27926

> <chembl_pref_name>
NAPITANE

$$$$

     RDKit          2D

 23 26  0  0  0  0  0  0  0  0999 V2000
    5.6917   -5.2792    0.0000 C   0  0  0  0  0  0  0  0  0  0  0  0
    5.1875   -5.7875    0.0000 O   0  0  0  0  0  0  0  0  0  0  0  0
    5.3667   -4.6542    0.0000 O   0  0  0  0  0  0  0  0  0  0  0  0
    4.5667   -5.4625    0.0000 C   0  0  0  0  0  0  0  0  0  0  0  0
    4.6667   -4.7625    0.0000 C   0  0  0  0  0  0  0  0  0  0  0  0
    6.1750   -5.8167    0.0000 C   0  0  0  0  0  0  0  0  0  0  0  0
    6.2292   -4.8042    0.0000 C   0  0  0  0  0  0  0  0  0  0  0  0
    3.3375   -5.4417    0.0000 N   0  0  0  0  0  0  0  0  0  0  0  0
    3.9417   -5.8042    0.0000 C   0  0  0  0  0  0  0  0  0  0  0  0
    2.7167   -5.7917    0.0000 C   0  0  0  0  0  0  0  0  0  0  0  0
    6.8667   -5.6667    0.0000 C   0  0  0  0  0  0  0  0  0  0  0  0
    5.9625   -6.4875    0.0000 C   0  0  0  0  0  0  0  0  0  0  0  0
    6.0792   -4.1042    0.0000 C   0  0  0  0  0  0  0  0  0  0  0  0
    6.8917   -5.0250    0.0000 C   0  0  0  0  0  0  0  0  0  0  0  0
    3.9417   -6.5125    0.0000 C   0  0  0  0  0  0  0  0  0  0  0  0
    2.7125   -6.5125    0.0000 C   0  0  0  0  0  0  0  0  0  0  0  0
    7.3417   -6.1917    0.0000 C   0  0  0  0  0  0  0  0  0  0  0  0
    6.4375   -7.0167    0.0000 C   0  0  0  0  0  0  0  0  0  0  0  0
    6.6042   -3.6375    0.0000 C   0  0  0  0  0  0  0  0  0  0  0  0
    7.4292   -4.5417    0.0000 C   0  0  0  0  0  0  0  0  0  0  0  0
    3.3292   -6.8542    0.0000 C   0  0  0  0  0  0  0  0  0  0  0  0
    7.1292   -6.8875    0.0000 C   0  0  0  0  0  0  0  0  0  0  0  0
    7.2917   -3.8500    0.0000 C   0  0  0  0  0  0  0  0  0  0  0  0
  2  1  1  0
  3  1  1  0
  4  2  1  0
  5  3  1  0
  6  1  1  0
  7  1  1  0
  8  9  1  0
  9  4  1  0
 10  8  1  0
 11  6  2  0
 12  6  1  0
 13  7  1  0
 14  7  2  0
 15  9  1  0
 16 21  1  0
 17 11  1  0
 18 12  2  0
 19 13  2  0
 20 14  1  0
 21 15  1  0
 22 18  1  0
 23 19  1  0
  4  5  1  0
 20 23  2  0
 22 17  2  0
 10 16  1  0
M  END

> <chembl_id>
CHEMBL26479

> <chembl_pref_name>
DIOXADROL

$$$$

     RDKit          2D

 17 17  0  0  0  0  0  0  0  0999 V2000
   -0.4973  -19.5583    0.0000 C   0  0  0  0  0  0  0  0  0  0  0  0
   -0.4984  -20.3857    0.0000 C   0  0  0  0  0  0  0  0  0  0  0  0
    0.2164  -20.7985    0.0000 C   0  0  0  0  0  0  0  0  0  0  0  0
    0.9328  -20.3852    0.0000 C   0  0  0  0  0  0  0  0  0  0  0  0
    0.9300  -19.5547    0.0000 C   0  0  0  0  0  0  0  0  0  0  0  0
    0.2146  -19.1455    0.0000 C   0  0  0  0  0  0  0  0  0  0  0  0
    1.6480  -20.7966    0.0000 Cl  0  0  0  0  0  0  0  0  0  0  0  0
   -1.2118  -19.1460    0.0000 C   0  0  0  0  0  0  0  0  0  0  0  0
   -1.9262  -19.5586    0.0000 C   0  0  0  0  0  0  0  0  0  0  0  0
   -2.5958  -20.1708    0.0000 C   0  0  0  0  0  0  0  0  0  0  0  0
   -1.3458  -20.1417    0.0000 C   0  0  0  0  0  0  0  0  0  0  0  0
   -3.3551  -19.5590    0.0000 C   0  0  0  0  0  0  0  0  0  0  0  0
   -4.0697  -19.1466    0.0000 C   0  0  0  0  0  0  0  0  0  0  0  0
   -3.3550  -20.3840    0.0000 O   0  0  0  0  0  0  0  0  0  0  0  0
   -4.0699  -18.3216    0.0000 N   0  0  0  0  0  0  0  0  0  0  0  0
   -4.7841  -19.5593    0.0000 C   0  0  0  0  0  0  0  0  0  0  0  0
   -2.6408  -19.1463    0.0000 O   0  0  0  0  0  0  0  0  0  0  0  0
  8  9  1  0
  1  2  2  0
  9 17  1  0
  4  5  1  0
  9 10  1  0
  9 11  1  0
  5  6  2  0
 17 12  1  0
  6  1  1  0
 12 13  1  0
  2  3  1  0
 12 14  2  0
  4  7  1  0
 13 15  1  0
 13 16  1  0
  1  8  1  0
  3  4  2  0
M  END

> <chembl_id>
CHEMBL36591

> <chembl_pref_name>
ALAPROCLATE

$$$$
