
     RDKit          2D

 24 26  0  0  0  0  0  0  0  0999 V2000
    5.2792   -2.0500    0.0000 C   0  0  0  0  0  0  0  0  0  0  0  0
    5.7917   -2.3500    0.0000 N   0  0  0  0  0  0  0  0  0  0  0  0
    5.2792   -1.4500    0.0000 N   0  0  0  0  0  0  0  0  0  0  0  0
    6.3125   -2.0500    0.0000 N   0  0  0  0  0  0  0  0  0  0  0  0
    5.7875   -4.7417    0.0000 C   0  0  0  0  0  0  0  0  0  0  0  0
    5.7875   -4.1417    0.0000 C   0  0  0  0  0  0  0  0  0  0  0  0
    6.3125   -1.4500    0.0000 C   0  0  0  0  0  0  0  0  0  0  0  0
    6.3042   -5.0417    0.0000 C   0  0  0  0  0  0  0  0  0  0  0  0
    5.7917   -1.1500    0.0000 C   0  0  0  0  0  0  0  0  0  0  0  0
    5.7917   -2.9500    0.0000 C   0  0  0  0  0  0  0  0  0  0  0  0
    5.2667   -3.8417    0.0000 C   0  0  0  0  0  0  0  0  0  0  0  0
    5.2667   -3.2417    0.0000 C   0  0  0  0  0  0  0  0  0  0  0  0
    6.3042   -3.8417    0.0000 C   0  0  0  0  0  0  0  0  0  0  0  0
    4.7542   -2.3417    0.0000 O   0  0  0  0  0  0  0  0  0  0  0  0
    6.3042   -5.6417    0.0000 C   0  0  0  0  0  0  0  0  0  0  0  0
    5.2667   -5.0417    0.0000 O   0  0  0  0  0  0  0  0  0  0  0  0
    6.3042   -3.2417    0.0000 C   0  0  0  0  0  0  0  0  0  0  0  0
    5.7917   -0.5500    0.0000 O   0  0  0  0  0  0  0  0  0  0  0  0
    5.7792   -5.9417    0.0000 Cl  0  0  0  0  0  0  0  0  0  0  0  0
    6.8167   -4.7417    0.0000 C   0  0  0  0  0  0  0  0  0  0  0  0
    4.7417   -4.1417    0.0000 C   0  0  0  0  0  0  0  0  0  0  0  0
    6.8250   -5.9417    0.0000 C   0  0  0  0  0  0  0  0  0  0  0  0
    7.3417   -5.0417    0.0000 C   0  0  0  0  0  0  0  0  0  0  0  0
    7.3417   -5.6417    0.0000 C   0  0  0  0  0  0  0  0  0  0  0  0
  2  1  1  0
  3  1  1  0
  4  2  1  0
  5  6  1  0
  6 13  1  0
  7  9  1  0
  8  5  1  0
  9  3  1  0
 10  2  1  0
 11 12  1  0
 12 10  2  0
 13 17  2  0
 14  1  2  0
 15  8  2  0
 16  5  2  0
 17 10  1  0
 18  9  2  0
 19 15  1  0
 20  8  1  0
 21 11  1  0
 22 15  1  0
 23 20  2  0
 24 23  1  0
  4  7  2  0
 11  6  2  0
 22 24  2  0
M  END

> <chembl_id>
CHEMBL6329

> <chembl_pref_name>
None

$$$$

     RDKit          2D

 25 27  0  0  0  0  0  0  0  0999 V2000
    5.2792   -2.0500    0.0000 C   0  0  0  0  0  0  0  0  0  0  0  0
    5.7917   -2.3500    0.0000 N   0  0  0  0  0  0  0  0  0  0  0  0
    5.2792   -1.4500    0.0000 N   0  0  0  0  0  0  0  0  0  0  0  0
    6.3125   -2.0500    0.0000 N   0  0  0  0  0  0  0  0  0  0  0  0
    6.3125   -1.4500    0.0000 C   0  0  0  0  0  0  0  0  0  0  0  0
    5.7875   -4.1417    0.0000 C   0  0  0  0  0  0  0  0  0  0  0  0
    5.7917   -1.1500    0.0000 C   0  0  0  0  0  0  0  0  0  0  0  0
    5.7917   -2.9500    0.0000 C   0  0  0  0  0  0  0  0  0  0  0  0
    5.7875   -4.7417    0.0000 C   0  0  0  0  0  0  0  0  0  0  0  0
    5.2667   -3.8417    0.0000 C   0  0  0  0  0  0  0  0  0  0  0  0
    8.3792   -6.2417    0.0000 N   0  0  0  0  0  0  0  0  0  0  0  0
    5.2667   -3.2417    0.0000 C   0  0  0  0  0  0  0  0  0  0  0  0
    6.3042   -3.8417    0.0000 C   0  0  0  0  0  0  0  0  0  0  0  0
    7.8625   -5.9417    0.0000 C   0  0  0  0  0  0  0  0  0  0  0  0
    4.7542   -2.3417    0.0000 O   0  0  0  0  0  0  0  0  0  0  0  0
    6.3042   -5.0417    0.0000 C   0  0  0  0  0  0  0  0  0  0  0  0
    6.3042   -3.2417    0.0000 C   0  0  0  0  0  0  0  0  0  0  0  0
    5.2667   -5.0417    0.0000 O   0  0  0  0  0  0  0  0  0  0  0  0
    5.7917   -0.5500    0.0000 O   0  0  0  0  0  0  0  0  0  0  0  0
    6.3042   -5.6417    0.0000 C   0  0  0  0  0  0  0  0  0  0  0  0
    6.8167   -4.7417    0.0000 C   0  0  0  0  0  0  0  0  0  0  0  0
    7.3417   -5.6417    0.0000 C   0  0  0  0  0  0  0  0  0  0  0  0
    7.3417   -5.0417    0.0000 C   0  0  0  0  0  0  0  0  0  0  0  0
    6.8250   -5.9417    0.0000 C   0  0  0  0  0  0  0  0  0  0  0  0
    4.7417   -4.1417    0.0000 C   0  0  0  0  0  0  0  0  0  0  0  0
  2  1  1  0
  3  1  1  0
  4  2  1  0
  5  7  1  0
  6 13  1  0
  7  3  1  0
  8  2  1  0
  9  6  1  0
 10 12  1  0
 11 14  3  0
 12  8  2  0
 13 17  2  0
 14 22  1  0
 15  1  2  0
 16  9  1  0
 17  8  1  0
 18  9  2  0
 19  7  2  0
 20 16  2  0
 21 16  1  0
 22 23  1  0
 23 21  2  0
 24 20  1  0
 25 10  1  0
  4  5  2  0
 10  6  2  0
 24 22  2  0
M  END

> <chembl_id>
CHEMBL6328

> <chembl_pref_name>
None

$$$$

     RDKit          2D

 25 27  0  0  0  0  0  0  0  0999 V2000
    3.8042   -1.6000    0.0000 C   0  0  0  0  0  0  0  0  0  0  0  0
    4.3167   -1.9000    0.0000 N   0  0  0  0  0  0  0  0  0  0  0  0
    3.8042   -1.0000    0.0000 N   0  0  0  0  0  0  0  0  0  0  0  0
    4.8417   -1.6000    0.0000 N   0  0  0  0  0  0  0  0  0  0  0  0
    4.3167   -2.5000    0.0000 C   0  0  0  0  0  0  0  0  0  0  0  0
    4.3167   -3.6917    0.0000 C   0  0  0  0  0  0  0  0  0  0  0  0
    4.8417   -1.0000    0.0000 C   0  0  0  0  0  0  0  0  0  0  0  0
    4.3167   -0.7000    0.0000 C   0  0  0  0  0  0  0  0  0  0  0  0
    3.7917   -3.3917    0.0000 C   0  0  0  0  0  0  0  0  0  0  0  0
    4.8375   -3.3917    0.0000 C   0  0  0  0  0  0  0  0  0  0  0  0
    3.8000   -2.7917    0.0000 C   0  0  0  0  0  0  0  0  0  0  0  0
    4.8375   -2.7917    0.0000 C   0  0  0  0  0  0  0  0  0  0  0  0
    4.3167   -4.2917    0.0000 C   0  0  0  0  0  0  0  0  0  0  0  0
    3.2875   -1.8917    0.0000 O   0  0  0  0  0  0  0  0  0  0  0  0
    4.8375   -4.5917    0.0000 C   0  0  0  0  0  0  0  0  0  0  0  0
    4.3167   -0.0917    0.0000 O   0  0  0  0  0  0  0  0  0  0  0  0
    4.8292   -5.1917    0.0000 C   0  0  0  0  0  0  0  0  0  0  0  0
    5.3500   -4.2917    0.0000 C   0  0  0  0  0  0  0  0  0  0  0  0
    5.8667   -5.1917    0.0000 C   0  0  0  0  0  0  0  0  0  0  0  0
    3.7917   -4.5917    0.0000 O   0  0  0  0  0  0  0  0  0  0  0  0
    5.8667   -4.5917    0.0000 C   0  0  0  0  0  0  0  0  0  0  0  0
    5.3542   -5.4917    0.0000 C   0  0  0  0  0  0  0  0  0  0  0  0
    6.3917   -5.4917    0.0000 Cl  0  0  0  0  0  0  0  0  0  0  0  0
    3.2750   -3.6917    0.0000 C   0  0  0  0  0  0  0  0  0  0  0  0
    5.3542   -3.6917    0.0000 C   0  0  0  0  0  0  0  0  0  0  0  0
  2  1  1  0
  3  1  1  0
  4  2  1  0
  5  2  1  0
  6 10  1  0
  7  8  1  0
  8  3  1  0
  9 11  1  0
 10 12  2  0
 11  5  2  0
 12  5  1  0
 13  6  1  0
 14  1  2  0
 15 13  1  0
 16  8  2  0
 17 15  2  0
 18 15  1  0
 19 21  1  0
 20 13  1  0
 21 18  2  0
 22 17  1  0
 23 19  1  0
 24  9  1  0
 25 10  1  0
  4  7  2  0
  9  6  2  0
 22 19  2  0
M  END

> <chembl_id>
CHEMBL265667

> <chembl_pref_name>
None

$$$$

     RDKit          2D

 23 25  0  0  0  0  0  0  0  0999 V2000
    6.3417   -2.4250    0.0000 C   0  0  0  0  0  0  0  0  0  0  0  0
    6.8542   -2.7250    0.0000 N   0  0  0  0  0  0  0  0  0  0  0  0
    6.3417   -1.8250    0.0000 N   0  0  0  0  0  0  0  0  0  0  0  0
    7.3750   -2.4250    0.0000 N   0  0  0  0  0  0  0  0  0  0  0  0
    7.3750   -1.8250    0.0000 C   0  0  0  0  0  0  0  0  0  0  0  0
    6.8542   -1.5250    0.0000 C   0  0  0  0  0  0  0  0  0  0  0  0
    6.8500   -5.1167    0.0000 C   0  0  0  0  0  0  0  0  0  0  0  0
    6.8542   -3.3250    0.0000 C   0  0  0  0  0  0  0  0  0  0  0  0
    5.8167   -2.7167    0.0000 O   0  0  0  0  0  0  0  0  0  0  0  0
    6.8500   -4.5167    0.0000 C   0  0  0  0  0  0  0  0  0  0  0  0
    7.3667   -5.4167    0.0000 C   0  0  0  0  0  0  0  0  0  0  0  0
    6.8542   -0.9250    0.0000 O   0  0  0  0  0  0  0  0  0  0  0  0
    6.3292   -5.4167    0.0000 O   0  0  0  0  0  0  0  0  0  0  0  0
    7.3667   -3.6167    0.0000 C   0  0  0  0  0  0  0  0  0  0  0  0
    6.3292   -3.6167    0.0000 C   0  0  0  0  0  0  0  0  0  0  0  0
    6.3292   -4.2167    0.0000 C   0  0  0  0  0  0  0  0  0  0  0  0
    7.3667   -4.2167    0.0000 C   0  0  0  0  0  0  0  0  0  0  0  0
    7.3667   -6.0167    0.0000 C   0  0  0  0  0  0  0  0  0  0  0  0
    7.8792   -5.1167    0.0000 C   0  0  0  0  0  0  0  0  0  0  0  0
    8.4042   -5.4167    0.0000 C   0  0  0  0  0  0  0  0  0  0  0  0
    7.8875   -6.3167    0.0000 C   0  0  0  0  0  0  0  0  0  0  0  0
    8.4042   -6.0167    0.0000 C   0  0  0  0  0  0  0  0  0  0  0  0
    8.9250   -6.3167    0.0000 C   0  0  0  0  0  0  0  0  0  0  0  0
  2  1  1  0
  3  1  1  0
  4  2  1  0
  5  6  1  0
  6  3  1  0
  7 10  1  0
  8  2  1  0
  9  1  2  0
 10 16  2  0
 11  7  1  0
 12  6  2  0
 13  7  2  0
 14  8  1  0
 15  8  2  0
 16 15  1  0
 17 14  2  0
 18 11  2  0
 19 11  1  0
 20 19  2  0
 21 18  1  0
 22 20  1  0
 23 22  1  0
  4  5  2  0
 10 17  1  0
 21 22  2  0
M  END

> <chembl_id>
CHEMBL6362

> <chembl_pref_name>
None

$$$$

     RDKit          2D

 24 26  0  0  0  0  0  0  0  0999 V2000
    5.2792   -2.0500    0.0000 C   0  0  0  0  0  0  0  0  0  0  0  0
    5.7917   -2.3500    0.0000 N   0  0  0  0  0  0  0  0  0  0  0  0
    5.2792   -1.4500    0.0000 N   0  0  0  0  0  0  0  0  0  0  0  0
    6.3125   -2.0500    0.0000 N   0  0  0  0  0  0  0  0  0  0  0  0
    6.3125   -1.4500    0.0000 C   0  0  0  0  0  0  0  0  0  0  0  0
    5.7875   -4.1417    0.0000 C   0  0  0  0  0  0  0  0  0  0  0  0
    5.7917   -1.1500    0.0000 C   0  0  0  0  0  0  0  0  0  0  0  0
    5.7917   -2.9500    0.0000 C   0  0  0  0  0  0  0  0  0  0  0  0
    5.7875   -4.7417    0.0000 C   0  0  0  0  0  0  0  0  0  0  0  0
    5.2667   -3.8417    0.0000 C   0  0  0  0  0  0  0  0  0  0  0  0
    5.2667   -3.2417    0.0000 C   0  0  0  0  0  0  0  0  0  0  0  0
    6.3042   -3.8417    0.0000 C   0  0  0  0  0  0  0  0  0  0  0  0
    4.7542   -2.3417    0.0000 O   0  0  0  0  0  0  0  0  0  0  0  0
    6.3042   -5.0417    0.0000 C   0  0  0  0  0  0  0  0  0  0  0  0
    6.3042   -3.2417    0.0000 C   0  0  0  0  0  0  0  0  0  0  0  0
    5.2667   -5.0417    0.0000 O   0  0  0  0  0  0  0  0  0  0  0  0
    5.7917   -0.5500    0.0000 O   0  0  0  0  0  0  0  0  0  0  0  0
    6.3042   -5.6417    0.0000 C   0  0  0  0  0  0  0  0  0  0  0  0
    6.8167   -4.7417    0.0000 C   0  0  0  0  0  0  0  0  0  0  0  0
    7.3417   -5.6417    0.0000 C   0  0  0  0  0  0  0  0  0  0  0  0
    7.3417   -5.0417    0.0000 C   0  0  0  0  0  0  0  0  0  0  0  0
    6.8250   -5.9417    0.0000 C   0  0  0  0  0  0  0  0  0  0  0  0
    7.8625   -5.9417    0.0000 Cl  0  0  0  0  0  0  0  0  0  0  0  0
    4.7417   -4.1417    0.0000 C   0  0  0  0  0  0  0  0  0  0  0  0
  2  1  1  0
  3  1  1  0
  4  2  1  0
  5  7  1  0
  6 12  1  0
  7  3  1  0
  8  2  1  0
  9  6  1  0
 10 11  1  0
 11  8  2  0
 12 15  2  0
 13  1  2  0
 14  9  1  0
 15  8  1  0
 16  9  2  0
 17  7  2  0
 18 14  2  0
 19 14  1  0
 20 21  1  0
 21 19  2  0
 22 18  1  0
 23 20  1  0
 24 10  1  0
  4  5  2  0
 10  6  2  0
 22 20  2  0
M  END

> <chembl_id>
CHEMBL267864

> <chembl_pref_name>
None

$$$$

     RDKit          2D

 23 25  0  0  0  0  0  0  0  0999 V2000
    5.2792   -2.0500    0.0000 C   0  0  0  0  0  0  0  0  0  0  0  0
    5.7917   -2.3500    0.0000 N   0  0  0  0  0  0  0  0  0  0  0  0
    5.2792   -1.4500    0.0000 N   0  0  0  0  0  0  0  0  0  0  0  0
    6.3125   -2.0500    0.0000 N   0  0  0  0  0  0  0  0  0  0  0  0
    6.3125   -1.4500    0.0000 C   0  0  0  0  0  0  0  0  0  0  0  0
    5.7875   -4.1417    0.0000 C   0  0  0  0  0  0  0  0  0  0  0  0
    5.7917   -1.1500    0.0000 C   0  0  0  0  0  0  0  0  0  0  0  0
    5.7917   -2.9500    0.0000 C   0  0  0  0  0  0  0  0  0  0  0  0
    5.7875   -4.7417    0.0000 C   0  0  0  0  0  0  0  0  0  0  0  0
    5.2667   -3.8417    0.0000 C   0  0  0  0  0  0  0  0  0  0  0  0
    5.2667   -3.2417    0.0000 C   0  0  0  0  0  0  0  0  0  0  0  0
    6.3042   -3.8417    0.0000 C   0  0  0  0  0  0  0  0  0  0  0  0
    4.7542   -2.3417    0.0000 O   0  0  0  0  0  0  0  0  0  0  0  0
    6.3042   -3.2417    0.0000 C   0  0  0  0  0  0  0  0  0  0  0  0
    5.2667   -5.0417    0.0000 O   0  0  0  0  0  0  0  0  0  0  0  0
    6.3042   -5.0417    0.0000 C   0  0  0  0  0  0  0  0  0  0  0  0
    5.7917   -0.5500    0.0000 O   0  0  0  0  0  0  0  0  0  0  0  0
    4.7417   -4.1417    0.0000 C   0  0  0  0  0  0  0  0  0  0  0  0
    6.8167   -4.7417    0.0000 C   0  0  0  0  0  0  0  0  0  0  0  0
    6.3042   -5.6417    0.0000 C   0  0  0  0  0  0  0  0  0  0  0  0
    6.8250   -5.9417    0.0000 C   0  0  0  0  0  0  0  0  0  0  0  0
    7.3417   -5.0417    0.0000 C   0  0  0  0  0  0  0  0  0  0  0  0
    7.3417   -5.6417    0.0000 C   0  0  0  0  0  0  0  0  0  0  0  0
  2  1  1  0
  3  1  1  0
  4  2  1  0
  5  7  1  0
  6 12  1  0
  7  3  1  0
  8  2  1  0
  9  6  1  0
 10 11  1  0
 11  8  2  0
 12 14  2  0
 13  1  2  0
 14  8  1  0
 15  9  2  0
 16  9  1  0
 17  7  2  0
 18 10  1  0
 19 16  1  0
 20 16  2  0
 21 20  1  0
 22 19  2  0
 23 21  2  0
  4  5  2  0
 10  6  2  0
 22 23  1  0
M  END

> <chembl_id>
CHEMBL6363

> <chembl_pref_name>
None

$$$$

     RDKit          2D

 25 27  0  0  0  0  0  0  0  0999 V2000
    2.3667   -2.7667    0.0000 C   0  0  0  0  0  0  0  0  0  0  0  0
    2.8792   -3.0667    0.0000 N   0  0  0  0  0  0  0  0  0  0  0  0
    2.3667   -2.1667    0.0000 N   0  0  0  0  0  0  0  0  0  0  0  0
    3.4042   -2.7667    0.0000 N   0  0  0  0  0  0  0  0  0  0  0  0
    2.8792   -5.4667    0.0000 C   0  0  0  0  0  0  0  0  0  0  0  0
    2.8792   -4.8667    0.0000 C   0  0  0  0  0  0  0  0  0  0  0  0
    3.4000   -5.7667    0.0000 C   0  0  0  0  0  0  0  0  0  0  0  0
    3.4042   -2.1667    0.0000 C   0  0  0  0  0  0  0  0  0  0  0  0
    2.8792   -3.6667    0.0000 C   0  0  0  0  0  0  0  0  0  0  0  0
    2.8792   -1.8667    0.0000 C   0  0  0  0  0  0  0  0  0  0  0  0
    2.3542   -4.5625    0.0000 C   0  0  0  0  0  0  0  0  0  0  0  0
    2.3625   -3.9667    0.0000 C   0  0  0  0  0  0  0  0  0  0  0  0
    3.3917   -6.3667    0.0000 C   0  0  0  0  0  0  0  0  0  0  0  0
    3.4000   -4.5625    0.0000 C   0  0  0  0  0  0  0  0  0  0  0  0
    3.9125   -5.4667    0.0000 C   0  0  0  0  0  0  0  0  0  0  0  0
    1.8500   -3.0667    0.0000 O   0  0  0  0  0  0  0  0  0  0  0  0
    2.3542   -5.7667    0.0000 O   0  0  0  0  0  0  0  0  0  0  0  0
    3.4000   -3.9667    0.0000 C   0  0  0  0  0  0  0  0  0  0  0  0
    3.9167   -6.6667    0.0000 C   0  0  0  0  0  0  0  0  0  0  0  0
    2.8792   -1.2667    0.0000 O   0  0  0  0  0  0  0  0  0  0  0  0
    1.8292   -4.8625    0.0000 Cl  0  0  0  0  0  0  0  0  0  0  0  0
    4.4292   -6.3667    0.0000 C   0  0  0  0  0  0  0  0  0  0  0  0
    4.4292   -5.7625    0.0000 C   0  0  0  0  0  0  0  0  0  0  0  0
    4.9542   -6.6667    0.0000 Br  0  0  0  0  0  0  0  0  0  0  0  0
    2.8750   -6.6625    0.0000 C   0  0  0  0  0  0  0  0  0  0  0  0
  2  1  1  0
  3  1  1  0
  4  2  1  0
  5  6  1  0
  6 14  1  0
  7  5  1  0
  8 10  1  0
  9  2  1  0
 10  3  1  0
 11 12  1  0
 12  9  2  0
 13  7  2  0
 14 18  2  0
 15  7  1  0
 16  1  2  0
 17  5  2  0
 18  9  1  0
 19 13  1  0
 20 10  2  0
 21 11  1  0
 22 23  1  0
 23 15  2  0
 24 22  1  0
 25 13  1  0
  4  8  2  0
 11  6  2  0
 19 22  2  0
M  END

> <chembl_id>
CHEMBL6352

> <chembl_pref_name>
None

$$$$

     RDKit          2D

 25 27  0  0  0  0  0  0  0  0999 V2000
    5.2792   -2.0500    0.0000 C   0  0  0  0  0  0  0  0  0  0  0  0
    5.7917   -2.3500    0.0000 N   0  0  0  0  0  0  0  0  0  0  0  0
    5.2792   -1.4500    0.0000 N   0  0  0  0  0  0  0  0  0  0  0  0
    6.3125   -2.0500    0.0000 N   0  0  0  0  0  0  0  0  0  0  0  0
    5.7875   -4.7417    0.0000 C   0  0  0  0  0  0  0  0  0  0  0  0
    5.7875   -4.1417    0.0000 C   0  0  0  0  0  0  0  0  0  0  0  0
    6.3042   -5.0417    0.0000 C   0  0  0  0  0  0  0  0  0  0  0  0
    6.3125   -1.4500    0.0000 C   0  0  0  0  0  0  0  0  0  0  0  0
    5.7917   -2.9500    0.0000 C   0  0  0  0  0  0  0  0  0  0  0  0
    5.7917   -1.1500    0.0000 C   0  0  0  0  0  0  0  0  0  0  0  0
    5.2667   -3.8417    0.0000 C   0  0  0  0  0  0  0  0  0  0  0  0
    6.3042   -5.6417    0.0000 C   0  0  0  0  0  0  0  0  0  0  0  0
    5.2667   -3.2417    0.0000 C   0  0  0  0  0  0  0  0  0  0  0  0
    6.3042   -3.8417    0.0000 C   0  0  0  0  0  0  0  0  0  0  0  0
    6.8167   -4.7417    0.0000 C   0  0  0  0  0  0  0  0  0  0  0  0
    6.8250   -5.9417    0.0000 C   0  0  0  0  0  0  0  0  0  0  0  0
    4.7542   -2.3417    0.0000 O   0  0  0  0  0  0  0  0  0  0  0  0
    5.2667   -5.0417    0.0000 O   0  0  0  0  0  0  0  0  0  0  0  0
    6.3042   -3.2417    0.0000 C   0  0  0  0  0  0  0  0  0  0  0  0
    5.7917   -0.5500    0.0000 O   0  0  0  0  0  0  0  0  0  0  0  0
    7.3417   -5.6417    0.0000 C   0  0  0  0  0  0  0  0  0  0  0  0
    4.7417   -4.1417    0.0000 Cl  0  0  0  0  0  0  0  0  0  0  0  0
    5.7792   -5.9417    0.0000 Cl  0  0  0  0  0  0  0  0  0  0  0  0
    7.3417   -5.0417    0.0000 C   0  0  0  0  0  0  0  0  0  0  0  0
    7.8625   -5.9417    0.0000 Cl  0  0  0  0  0  0  0  0  0  0  0  0
  2  1  1  0
  3  1  1  0
  4  2  1  0
  5  6  1  0
  6 14  1  0
  7  5  1  0
  8 10  1  0
  9  2  1  0
 10  3  1  0
 11 13  1  0
 12  7  2  0
 13  9  2  0
 14 19  2  0
 15  7  1  0
 16 12  1  0
 17  1  2  0
 18  5  2  0
 19  9  1  0
 20 10  2  0
 21 24  1  0
 22 11  1  0
 23 12  1  0
 24 15  2  0
 25 21  1  0
  4  8  2  0
 11  6  2  0
 16 21  2  0
M  END

> <chembl_id>
CHEMBL268097

> <chembl_pref_name>
None

$$$$

     RDKit          2D

 27 29  0  0  0  0  0  0  0  0999 V2000
    5.2792   -2.0500    0.0000 C   0  0  0  0  0  0  0  0  0  0  0  0
    5.7917   -2.3500    0.0000 N   0  0  0  0  0  0  0  0  0  0  0  0
    5.2792   -1.4500    0.0000 N   0  0  0  0  0  0  0  0  0  0  0  0
    6.3125   -2.0500    0.0000 N   0  0  0  0  0  0  0  0  0  0  0  0
    7.8625   -5.9417    0.0000 S   0  0  0  0  0  0  0  0  0  0  0  0
    5.7875   -4.1417    0.0000 C   0  0  0  0  0  0  0  0  0  0  0  0
    6.3125   -1.4500    0.0000 C   0  0  0  0  0  0  0  0  0  0  0  0
    5.7917   -2.9500    0.0000 C   0  0  0  0  0  0  0  0  0  0  0  0
    5.7917   -1.1500    0.0000 C   0  0  0  0  0  0  0  0  0  0  0  0
    5.7875   -4.7417    0.0000 C   0  0  0  0  0  0  0  0  0  0  0  0
    5.2667   -3.8417    0.0000 C   0  0  0  0  0  0  0  0  0  0  0  0
    5.2667   -3.2417    0.0000 C   0  0  0  0  0  0  0  0  0  0  0  0
    6.3042   -3.8417    0.0000 C   0  0  0  0  0  0  0  0  0  0  0  0
    7.3417   -5.6417    0.0000 C   0  0  0  0  0  0  0  0  0  0  0  0
    4.7542   -2.3417    0.0000 O   0  0  0  0  0  0  0  0  0  0  0  0
    6.3042   -5.0417    0.0000 C   0  0  0  0  0  0  0  0  0  0  0  0
    8.4000   -5.4625    0.0000 O   0  0  0  0  0  0  0  0  0  0  0  0
    8.3792   -6.2417    0.0000 O   0  0  0  0  0  0  0  0  0  0  0  0
    6.3042   -3.2417    0.0000 C   0  0  0  0  0  0  0  0  0  0  0  0
    5.2667   -5.0417    0.0000 O   0  0  0  0  0  0  0  0  0  0  0  0
    5.7917   -0.5500    0.0000 O   0  0  0  0  0  0  0  0  0  0  0  0
    7.3417   -5.0417    0.0000 C   0  0  0  0  0  0  0  0  0  0  0  0
    6.8250   -5.9417    0.0000 C   0  0  0  0  0  0  0  0  0  0  0  0
    6.8167   -4.7417    0.0000 C   0  0  0  0  0  0  0  0  0  0  0  0
    6.3042   -5.6417    0.0000 C   0  0  0  0  0  0  0  0  0  0  0  0
    4.7417   -4.1417    0.0000 Cl  0  0  0  0  0  0  0  0  0  0  0  0
    7.8625   -6.5417    0.0000 C   0  0  0  0  0  0  0  0  0  0  0  0
  2  1  1  0
  3  1  1  0
  4  2  1  0
  5 14  1  0
  6 13  1  0
  7  9  1  0
  8  2  1  0
  9  3  1  0
 10  6  1  0
 11 12  1  0
 12  8  2  0
 13 19  2  0
 14 23  2  0
 15  1  2  0
 16 10  1  0
 17  5  2  0
 18  5  2  0
 19  8  1  0
 20 10  2  0
 21  9  2  0
 22 24  2  0
 23 25  1  0
 24 16  1  0
 25 16  2  0
 26 11  1  0
 27  5  1  0
  4  7  2  0
 11  6  2  0
 22 14  1  0
M  END

> <chembl_id>
CHEMBL266457

> <chembl_pref_name>
None

$$$$

     RDKit          2D

 46 52  0  0  0  0  0  0  0  0999 V2000
   -4.2208   -2.2292    0.0000 N   0  0  0  0  0  0  0  0  0  0  0  0
    3.7250   -2.2542    0.0000 N   0  0  0  0  0  0  0  0  0  0  0  0
   -4.9333   -1.8167    0.0000 C   0  0  0  0  0  0  0  0  0  0  0  0
    4.4417   -1.8417    0.0000 C   0  0  0  0  0  0  0  0  0  0  0  0
    4.4417   -1.0167    0.0000 C   0  0  0  0  0  0  0  0  0  0  0  0
   -4.9375   -0.9917    0.0000 C   0  0  0  0  0  0  0  0  0  0  0  0
   -4.2208   -3.0542    0.0000 C   0  0  0  0  0  0  0  0  0  0  0  0
    3.7292   -3.0792    0.0000 C   0  0  0  0  0  0  0  0  0  0  0  0
    3.7250   -0.6042    0.0000 C   0  0  0  0  0  0  0  0  0  0  0  0
   -4.2208   -0.5750    0.0000 C   0  0  0  0  0  0  0  0  0  0  0  0
    3.0125   -1.8417    0.0000 C   0  0  0  0  0  0  0  0  0  0  0  0
   -3.5083   -1.8167    0.0000 C   0  0  0  0  0  0  0  0  0  0  0  0
   -2.0833   -3.4625    0.0000 C   0  0  0  0  0  0  0  0  0  0  0  0
    1.5917   -3.5000    0.0000 C   0  0  0  0  0  0  0  0  0  0  0  0
   -3.5083   -0.9875    0.0000 C   0  0  0  0  0  0  0  0  0  0  0  0
    3.0125   -1.0167    0.0000 C   0  0  0  0  0  0  0  0  0  0  0  0
   -4.2250    0.2500    0.0000 N   0  0  0  0  0  0  0  0  0  0  0  0
    3.7417    0.2708    0.0000 N   0  0  0  0  0  0  0  0  0  0  0  0
    2.3000   -3.0875    0.0000 C   0  0  0  0  0  0  0  0  0  0  0  0
   -2.7958   -3.0542    0.0000 C   0  0  0  0  0  0  0  0  0  0  0  0
   -3.5083   -3.4667    0.0000 C   0  0  0  0  0  0  0  0  0  0  0  0
    3.0167   -3.5000    0.0000 C   0  0  0  0  0  0  0  0  0  0  0  0
   -5.6583   -0.5792    0.0000 C   0  0  0  0  0  0  0  0  0  0  0  0
    5.1500   -0.6000    0.0000 C   0  0  0  0  0  0  0  0  0  0  0  0
    5.1542   -2.2542    0.0000 C   0  0  0  0  0  0  0  0  0  0  0  0
   -5.6458   -2.2292    0.0000 C   0  0  0  0  0  0  0  0  0  0  0  0
    1.5917   -4.3167    0.0000 C   0  0  0  0  0  0  0  0  0  0  0  0
   -2.0750   -4.2917    0.0000 C   0  0  0  0  0  0  0  0  0  0  0  0
    2.3042   -4.7292    0.0000 C   0  0  0  0  0  0  0  0  0  0  0  0
   -2.7958   -4.7042    0.0000 C   0  0  0  0  0  0  0  0  0  0  0  0
    2.9167    0.2708    0.0000 C   0  0  0  0  0  0  0  0  0  0  0  0
   -3.5083    0.6625    0.0000 C   0  0  0  0  0  0  0  0  0  0  0  0
    3.0125   -4.3167    0.0000 C   0  0  0  0  0  0  0  0  0  0  0  0
   -3.5083   -4.2917    0.0000 C   0  0  0  0  0  0  0  0  0  0  0  0
    5.8667   -1.0042    0.0000 C   0  0  0  0  0  0  0  0  0  0  0  0
   -6.3542   -0.9917    0.0000 C   0  0  0  0  0  0  0  0  0  0  0  0
   -6.3542   -1.8250    0.0000 C   0  0  0  0  0  0  0  0  0  0  0  0
    5.8667   -1.8375    0.0000 C   0  0  0  0  0  0  0  0  0  0  0  0
    2.2042    0.6833    0.0000 C   0  0  0  0  0  0  0  0  0  0  0  0
   -2.7958    0.2583    0.0000 C   0  0  0  0  0  0  0  0  0  0  0  0
   -0.6583    0.6708    0.0000 C   0  0  0  0  0  0  0  0  0  0  0  0
    0.0625    0.2625    0.0000 C   0  0  0  0  0  0  0  0  0  0  0  0
    0.7750    0.6750    0.0000 C   0  0  0  0  0  0  0  0  0  0  0  0
    1.4917    0.2708    0.0000 C   0  0  0  0  0  0  0  0  0  0  0  0
   -2.0833    0.6708    0.0000 C   0  0  0  0  0  0  0  0  0  0  0  0
   -1.3708    0.2583    0.0000 C   0  0  0  0  0  0  0  0  0  0  0  0
  2  8  1  0
  3  1  1  0
  4  2  2  0
  5  4  1  0
  6  3  1  0
  7  1  1  0
  8 22  1  0
  9 16  1  0
 10 15  2  0
 11  2  1  0
 12  1  2  0
 13 20  2  0
 14 13  1  0
 15 12  1  0
 16 11  2  0
 17 10  1  0
 18  9  1  0
 19 14  2  0
 20 21  1  0
 21  7  1  0
 22 19  1  0
 23  6  2  0
 24  5  1  0
 25  4  1  0
 26  3  2  0
 27 14  1  0
 28 30  2  0
 29 27  2  0
 30 34  1  0
 31 39  1  0
 32 17  1  0
 33 29  1  0
 34 21  2  0
 35 38  1  0
 36 37  2  0
 37 26  1  0
 38 25  2  0
 39 44  1  0
 40 32  1  0
 41 46  1  0
 42 41  1  0
 43 42  1  0
 44 43  1  0
 45 40  1  0
 46 45  1  0
  6 10  1  0
 36 23  1  0
 13 28  1  0
 22 33  2  0
  9  5  2  0
 24 35  2  0
 31 18  1  0
M  CHG  2   1   1   2   1
M  END

> <chembl_id>
CHEMBL268556

> <chembl_pref_name>
None

$$$$

     RDKit          2D

 25 27  0  0  0  0  0  0  0  0999 V2000
    6.3417   -2.4250    0.0000 C   0  0  0  0  0  0  0  0  0  0  0  0
    6.8542   -2.7250    0.0000 N   0  0  0  0  0  0  0  0  0  0  0  0
    6.3417   -1.8250    0.0000 N   0  0  0  0  0  0  0  0  0  0  0  0
    7.3750   -2.4250    0.0000 N   0  0  0  0  0  0  0  0  0  0  0  0
    6.8500   -4.5167    0.0000 C   0  0  0  0  0  0  0  0  0  0  0  0
    7.3750   -1.8250    0.0000 C   0  0  0  0  0  0  0  0  0  0  0  0
    6.8542   -3.3250    0.0000 C   0  0  0  0  0  0  0  0  0  0  0  0
    6.8542   -1.5250    0.0000 C   0  0  0  0  0  0  0  0  0  0  0  0
    6.8500   -5.1167    0.0000 C   0  0  0  0  0  0  0  0  0  0  0  0
    6.3292   -4.2167    0.0000 C   0  0  0  0  0  0  0  0  0  0  0  0
    6.3292   -3.6167    0.0000 C   0  0  0  0  0  0  0  0  0  0  0  0
    7.3667   -4.2167    0.0000 C   0  0  0  0  0  0  0  0  0  0  0  0
    5.8167   -2.7167    0.0000 O   0  0  0  0  0  0  0  0  0  0  0  0
    7.3667   -5.4167    0.0000 C   0  0  0  0  0  0  0  0  0  0  0  0
    7.3667   -3.6167    0.0000 C   0  0  0  0  0  0  0  0  0  0  0  0
    6.3292   -5.4167    0.0000 O   0  0  0  0  0  0  0  0  0  0  0  0
    6.8542   -0.9250    0.0000 O   0  0  0  0  0  0  0  0  0  0  0  0
    7.3667   -6.0167    0.0000 C   0  0  0  0  0  0  0  0  0  0  0  0
    7.8792   -5.1167    0.0000 C   0  0  0  0  0  0  0  0  0  0  0  0
    5.8042   -4.5167    0.0000 Cl  0  0  0  0  0  0  0  0  0  0  0  0
    8.4042   -6.0167    0.0000 C   0  0  0  0  0  0  0  0  0  0  0  0
    8.9250   -6.3167    0.0000 S   0  0  0  0  0  0  0  0  0  0  0  0
    8.4042   -5.4167    0.0000 C   0  0  0  0  0  0  0  0  0  0  0  0
    7.8875   -6.3167    0.0000 C   0  0  0  0  0  0  0  0  0  0  0  0
    8.9250   -6.9167    0.0000 C   0  0  0  0  0  0  0  0  0  0  0  0
  2  1  1  0
  3  1  1  0
  4  2  1  0
  5 12  1  0
  6  8  1  0
  7  2  1  0
  8  3  1  0
  9  5  1  0
 10 11  1  0
 11  7  2  0
 12 15  2  0
 13  1  2  0
 14  9  1  0
 15  7  1  0
 16  9  2  0
 17  8  2  0
 18 14  2  0
 19 14  1  0
 20 10  1  0
 21 23  1  0
 22 21  1  0
 23 19  2  0
 24 18  1  0
 25 22  1  0
  4  6  2  0
 10  5  2  0
 24 21  2  0
M  END

> <chembl_id>
CHEMBL6214

> <chembl_pref_name>
None

$$$$

     RDKit          2D

 24 26  0  0  0  0  0  0  0  0999 V2000
    6.3417   -2.4250    0.0000 C   0  0  0  0  0  0  0  0  0  0  0  0
    6.8542   -2.7250    0.0000 N   0  0  0  0  0  0  0  0  0  0  0  0
    6.3417   -1.8250    0.0000 N   0  0  0  0  0  0  0  0  0  0  0  0
    7.3750   -2.4250    0.0000 N   0  0  0  0  0  0  0  0  0  0  0  0
    6.8500   -4.5167    0.0000 C   0  0  0  0  0  0  0  0  0  0  0  0
    7.3750   -1.8250    0.0000 C   0  0  0  0  0  0  0  0  0  0  0  0
    6.8542   -3.3250    0.0000 C   0  0  0  0  0  0  0  0  0  0  0  0
    6.8542   -1.5250    0.0000 C   0  0  0  0  0  0  0  0  0  0  0  0
    6.8500   -5.1167    0.0000 C   0  0  0  0  0  0  0  0  0  0  0  0
    6.3292   -4.2167    0.0000 C   0  0  0  0  0  0  0  0  0  0  0  0
    6.3292   -3.6167    0.0000 C   0  0  0  0  0  0  0  0  0  0  0  0
    7.3667   -4.2167    0.0000 C   0  0  0  0  0  0  0  0  0  0  0  0
    5.8167   -2.7167    0.0000 O   0  0  0  0  0  0  0  0  0  0  0  0
    7.3667   -5.4167    0.0000 C   0  0  0  0  0  0  0  0  0  0  0  0
    7.3667   -3.6167    0.0000 C   0  0  0  0  0  0  0  0  0  0  0  0
    6.3292   -5.4167    0.0000 O   0  0  0  0  0  0  0  0  0  0  0  0
    6.8542   -0.9250    0.0000 O   0  0  0  0  0  0  0  0  0  0  0  0
    7.3667   -6.0167    0.0000 C   0  0  0  0  0  0  0  0  0  0  0  0
    7.8792   -5.1167    0.0000 C   0  0  0  0  0  0  0  0  0  0  0  0
    5.8042   -4.5167    0.0000 Cl  0  0  0  0  0  0  0  0  0  0  0  0
    8.4042   -6.0167    0.0000 C   0  0  0  0  0  0  0  0  0  0  0  0
    7.8875   -6.3167    0.0000 C   0  0  0  0  0  0  0  0  0  0  0  0
    8.4042   -5.4167    0.0000 C   0  0  0  0  0  0  0  0  0  0  0  0
    8.9250   -6.3167    0.0000 Cl  0  0  0  0  0  0  0  0  0  0  0  0
  2  1  1  0
  3  1  1  0
  4  2  1  0
  5 12  1  0
  6  8  1  0
  7  2  1  0
  8  3  1  0
  9  5  1  0
 10 11  1  0
 11  7  2  0
 12 15  2  0
 13  1  2  0
 14  9  1  0
 15  7  1  0
 16  9  2  0
 17  8  2  0
 18 14  2  0
 19 14  1  0
 20 10  1  0
 21 23  1  0
 22 18  1  0
 23 19  2  0
 24 21  1  0
  4  6  2  0
 10  5  2  0
 22 21  2  0
M  END

> <chembl_id>
CHEMBL6222

> <chembl_pref_name>
None

$$$$

     RDKit          2D

 19 21  0  0  0  0  0  0  0  0999 V2000
   -3.6295   -7.5881    0.0000 C   0  0  0  0  0  0  0  0  0  0  0  0
   -3.6295   -8.4132    0.0000 C   0  0  0  0  0  0  0  0  0  0  0  0
   -2.9173   -8.8215    0.0000 C   0  0  0  0  0  0  0  0  0  0  0  0
   -2.2053   -8.4132    0.0000 C   0  0  0  0  0  0  0  0  0  0  0  0
   -2.2053   -7.5881    0.0000 C   0  0  0  0  0  0  0  0  0  0  0  0
   -2.9173   -7.1714    0.0000 O   0  0  0  0  0  0  0  0  0  0  0  0
   -1.4896   -7.1777    0.0000 O   0  0  0  0  0  0  0  0  0  0  0  0
   -4.3452   -7.1777    0.0000 C   0  0  0  0  0  0  0  0  0  0  0  0
   -1.4872   -8.8256    0.0000 C   0  0  0  0  0  0  0  0  0  0  0  0
   -0.0631   -9.6572    0.0000 C   0  0  0  0  0  0  0  0  0  0  0  0
   -0.0599   -8.8311    0.0000 C   0  0  0  0  0  0  0  0  0  0  0  0
   -0.7743   -8.4131    0.0000 C   0  0  0  0  0  0  0  0  0  0  0  0
   -0.7807  -10.0651    0.0000 C   0  0  0  0  0  0  0  0  0  0  0  0
   -1.4911   -9.6548    0.0000 C   0  0  0  0  0  0  0  0  0  0  0  0
   -2.1979  -10.0627    0.0000 C   0  0  0  0  0  0  0  0  0  0  0  0
   -2.2002  -10.8826    0.0000 C   0  0  0  0  0  0  0  0  0  0  0  0
   -1.4897  -11.2929    0.0000 C   0  0  0  0  0  0  0  0  0  0  0  0
   -0.7768  -10.8834    0.0000 C   0  0  0  0  0  0  0  0  0  0  0  0
   -5.0585   -7.5923    0.0000 Br  0  0  0  0  0  0  0  0  0  0  0  0
  9 14  1  0
  2  3  1  0
  3  4  1  0
  4  5  1  0
  5  6  1  0
  9 12  2  0
 13 10  1  0
 10 11  2  0
 11 12  1  0
  4  9  1  0
 13 14  2  0
  5  7  2  0
  1  2  1  0
  1  8  2  0
  1  6  1  0
  8 19  1  0
 13 18  1  0
 14 15  1  0
 15 16  2  0
 16 17  1  0
 17 18  2  0
M  END

> <chembl_id>
CHEMBL6206

> <chembl_pref_name>
BROMOENOL LACTONE

$$$$

     RDKit          2D

 19 21  0  0  0  0  0  0  0  0999 V2000
    3.4042   -4.0667    0.0000 C   0  0  0  0  0  0  0  0  0  0  0  0
    3.4042   -3.4667    0.0000 C   0  0  0  0  0  0  0  0  0  0  0  0
    2.8792   -4.3667    0.0000 O   0  0  0  0  0  0  0  0  0  0  0  0
    3.9250   -3.1625    0.0000 C   0  0  0  0  0  0  0  0  0  0  0  0
    3.9250   -2.5625    0.0000 C   0  0  0  0  0  0  0  0  0  0  0  0
    2.3667   -4.0667    0.0000 C   0  0  0  0  0  0  0  0  0  0  0  0
    2.8792   -3.1667    0.0000 C   0  0  0  0  0  0  0  0  0  0  0  0
    3.9250   -4.3667    0.0000 O   0  0  0  0  0  0  0  0  0  0  0  0
    1.8500   -4.3625    0.0000 C   0  0  0  0  0  0  0  0  0  0  0  0
    4.4417   -2.2542    0.0000 C   0  0  0  0  0  0  0  0  0  0  0  0
    2.3667   -3.4667    0.0000 C   0  0  0  0  0  0  0  0  0  0  0  0
    1.3292   -4.0625    0.0000 I   0  0  0  0  0  0  0  0  0  0  0  0
    4.4417   -3.4542    0.0000 C   0  0  0  0  0  0  0  0  0  0  0  0
    3.4042   -2.2625    0.0000 C   0  0  0  0  0  0  0  0  0  0  0  0
    4.9667   -3.1542    0.0000 C   0  0  0  0  0  0  0  0  0  0  0  0
    4.9667   -2.5542    0.0000 C   0  0  0  0  0  0  0  0  0  0  0  0
    4.4417   -1.6542    0.0000 C   0  0  0  0  0  0  0  0  0  0  0  0
    3.4042   -1.6625    0.0000 C   0  0  0  0  0  0  0  0  0  0  0  0
    3.9250   -1.3625    0.0000 C   0  0  0  0  0  0  0  0  0  0  0  0
  2  1  1  0
  3  1  1  0
  4  2  1  0
  5  4  1  0
  6  3  1  0
  7  2  1  0
  8  1  2  0
  9  6  2  0
 10  5  2  0
 11  6  1  0
 12  9  1  0
 13  4  2  0
 14  5  1  0
 15 13  1  0
 16 15  2  0
 17 10  1  0
 18 14  2  0
 19 18  1  0
  7 11  1  0
 10 16  1  0
 19 17  2  0
M  END

> <chembl_id>
CHEMBL6223

> <chembl_pref_name>
None

$$$$

     RDKit          2D

 20 22  0  0  0  0  0  0  0  0999 V2000
    3.4042   -4.0667    0.0000 C   0  0  0  0  0  0  0  0  0  0  0  0
    3.4042   -3.4667    0.0000 C   0  0  0  0  0  0  0  0  0  0  0  0
    2.8792   -4.3667    0.0000 O   0  0  0  0  0  0  0  0  0  0  0  0
    3.9250   -3.1625    0.0000 C   0  0  0  0  0  0  0  0  0  0  0  0
    3.9250   -2.5625    0.0000 C   0  0  0  0  0  0  0  0  0  0  0  0
    1.3292   -4.0625    0.0000 C   0  0  0  0  0  0  0  0  0  0  0  0
    2.3667   -4.0667    0.0000 C   0  0  0  0  0  0  0  0  0  0  0  0
    0.8042   -3.7625    0.0000 C   0  0  0  0  0  0  0  0  0  0  0  0
    2.8792   -3.1667    0.0000 C   0  0  0  0  0  0  0  0  0  0  0  0
    3.9250   -4.3667    0.0000 O   0  0  0  0  0  0  0  0  0  0  0  0
    1.8500   -4.3625    0.0000 C   0  0  0  0  0  0  0  0  0  0  0  0
    4.4417   -2.2542    0.0000 C   0  0  0  0  0  0  0  0  0  0  0  0
    2.3667   -3.4667    0.0000 C   0  0  0  0  0  0  0  0  0  0  0  0
    4.4417   -3.4542    0.0000 C   0  0  0  0  0  0  0  0  0  0  0  0
    3.4042   -2.2625    0.0000 C   0  0  0  0  0  0  0  0  0  0  0  0
    4.9667   -3.1542    0.0000 C   0  0  0  0  0  0  0  0  0  0  0  0
    4.9667   -2.5542    0.0000 C   0  0  0  0  0  0  0  0  0  0  0  0
    4.4417   -1.6542    0.0000 C   0  0  0  0  0  0  0  0  0  0  0  0
    3.4042   -1.6625    0.0000 C   0  0  0  0  0  0  0  0  0  0  0  0
    3.9250   -1.3625    0.0000 C   0  0  0  0  0  0  0  0  0  0  0  0
  2  1  1  0
  3  1  1  0
  4  2  1  0
  5  4  1  0
  6 11  1  0
  7  3  1  0
  8  6  3  0
  9  2  1  0
 10  1  2  0
 11  7  2  0
 12  5  2  0
 13  7  1  0
 14  4  2  0
 15  5  1  0
 16 14  1  0
 17 16  2  0
 18 12  1  0
 19 15  2  0
 20 19  1  0
 13  9  1  0
 17 12  1  0
 18 20  2  0
M  END

> <chembl_id>
CHEMBL269758

> <chembl_pref_name>
None

$$$$

     RDKit          2D

 19 21  0  0  0  0  0  0  0  0999 V2000
    3.4042   -4.0667    0.0000 C   0  0  0  0  0  0  0  0  0  0  0  0
    3.4042   -3.4667    0.0000 C   0  0  0  0  0  0  0  0  0  0  0  0
    2.8792   -4.3667    0.0000 O   0  0  0  0  0  0  0  0  0  0  0  0
    3.9250   -3.1625    0.0000 C   0  0  0  0  0  0  0  0  0  0  0  0
    3.9250   -2.5625    0.0000 C   0  0  0  0  0  0  0  0  0  0  0  0
    2.3667   -4.0667    0.0000 C   0  0  0  0  0  0  0  0  0  0  0  0
    2.8792   -3.1667    0.0000 C   0  0  0  0  0  0  0  0  0  0  0  0
    3.9250   -4.3667    0.0000 O   0  0  0  0  0  0  0  0  0  0  0  0
    1.8500   -4.3625    0.0000 C   0  0  0  0  0  0  0  0  0  0  0  0
    4.4417   -2.2542    0.0000 C   0  0  0  0  0  0  0  0  0  0  0  0
    2.3667   -3.4667    0.0000 C   0  0  0  0  0  0  0  0  0  0  0  0
    1.8417   -4.9625    0.0000 I   0  0  0  0  0  0  0  0  0  0  0  0
    4.4417   -3.4542    0.0000 C   0  0  0  0  0  0  0  0  0  0  0  0
    3.4042   -2.2625    0.0000 C   0  0  0  0  0  0  0  0  0  0  0  0
    4.9667   -3.1542    0.0000 C   0  0  0  0  0  0  0  0  0  0  0  0
    4.9667   -2.5542    0.0000 C   0  0  0  0  0  0  0  0  0  0  0  0
    4.4417   -1.6542    0.0000 C   0  0  0  0  0  0  0  0  0  0  0  0
    3.4042   -1.6625    0.0000 C   0  0  0  0  0  0  0  0  0  0  0  0
    3.9250   -1.3625    0.0000 C   0  0  0  0  0  0  0  0  0  0  0  0
  2  1  1  0
  3  1  1  0
  4  2  1  0
  5  4  1  0
  6  3  1  0
  7  2  1  0
  8  1  2  0
  9  6  2  0
 10  5  2  0
 11  6  1  0
 12  9  1  0
 13  4  2  0
 14  5  1  0
 15 13  1  0
 16 15  2  0
 17 10  1  0
 18 14  2  0
 19 18  1  0
  7 11  1  0
 10 16  1  0
 19 17  2  0
M  END

> <chembl_id>
CHEMBL6228

> <chembl_pref_name>
None

$$$$

     RDKit          2D

 22 24  0  0  0  0  0  0  0  0999 V2000
    6.3417   -2.4250    0.0000 C   0  0  0  0  0  0  0  0  0  0  0  0
    6.8542   -2.7250    0.0000 N   0  0  0  0  0  0  0  0  0  0  0  0
    6.3417   -1.8250    0.0000 N   0  0  0  0  0  0  0  0  0  0  0  0
    7.3750   -2.4250    0.0000 N   0  0  0  0  0  0  0  0  0  0  0  0
    7.3750   -1.8250    0.0000 C   0  0  0  0  0  0  0  0  0  0  0  0
    6.8542   -1.5250    0.0000 C   0  0  0  0  0  0  0  0  0  0  0  0
    6.8500   -5.1167    0.0000 C   0  0  0  0  0  0  0  0  0  0  0  0
    6.8542   -3.3250    0.0000 C   0  0  0  0  0  0  0  0  0  0  0  0
    5.8167   -2.7167    0.0000 O   0  0  0  0  0  0  0  0  0  0  0  0
    6.8500   -4.5167    0.0000 C   0  0  0  0  0  0  0  0  0  0  0  0
    6.8542   -0.9250    0.0000 O   0  0  0  0  0  0  0  0  0  0  0  0
    6.3292   -5.4167    0.0000 O   0  0  0  0  0  0  0  0  0  0  0  0
    7.3667   -5.4167    0.0000 C   0  0  0  0  0  0  0  0  0  0  0  0
    7.3667   -3.6167    0.0000 C   0  0  0  0  0  0  0  0  0  0  0  0
    6.3292   -3.6167    0.0000 C   0  0  0  0  0  0  0  0  0  0  0  0
    6.3292   -4.2167    0.0000 C   0  0  0  0  0  0  0  0  0  0  0  0
    7.3667   -4.2167    0.0000 C   0  0  0  0  0  0  0  0  0  0  0  0
    7.3667   -6.0167    0.0000 C   0  0  0  0  0  0  0  0  0  0  0  0
    7.8792   -5.1167    0.0000 C   0  0  0  0  0  0  0  0  0  0  0  0
    8.4042   -5.4167    0.0000 C   0  0  0  0  0  0  0  0  0  0  0  0
    7.8875   -6.3167    0.0000 C   0  0  0  0  0  0  0  0  0  0  0  0
    8.4042   -6.0167    0.0000 C   0  0  0  0  0  0  0  0  0  0  0  0
  2  1  1  0
  3  1  1  0
  4  2  1  0
  5  6  1  0
  6  3  1  0
  7 10  1  0
  8  2  1  0
  9  1  2  0
 10 16  2  0
 11  6  2  0
 12  7  2  0
 13  7  1  0
 14  8  1  0
 15  8  2  0
 16 15  1  0
 17 14  2  0
 18 13  2  0
 19 13  1  0
 20 19  2  0
 21 18  1  0
 22 20  1  0
  4  5  2  0
 10 17  1  0
 21 22  2  0
M  END

> <chembl_id>
CHEMBL268365

> <chembl_pref_name>
None

$$$$

     RDKit          2D

 24 26  0  0  0  0  0  0  0  0999 V2000
    3.5250   -1.2125    0.0000 C   0  0  0  0  0  0  0  0  0  0  0  0
    4.0375   -1.5125    0.0000 N   0  0  0  0  0  0  0  0  0  0  0  0
    3.5250   -0.6125    0.0000 N   0  0  0  0  0  0  0  0  0  0  0  0
    4.5542   -1.2125    0.0000 N   0  0  0  0  0  0  0  0  0  0  0  0
    4.0292   -3.3042    0.0000 C   0  0  0  0  0  0  0  0  0  0  0  0
    4.5542   -0.6125    0.0000 C   0  0  0  0  0  0  0  0  0  0  0  0
    4.0375   -2.1125    0.0000 C   0  0  0  0  0  0  0  0  0  0  0  0
    4.0375   -0.3125    0.0000 C   0  0  0  0  0  0  0  0  0  0  0  0
    3.5125   -3.0042    0.0000 C   0  0  0  0  0  0  0  0  0  0  0  0
    3.5167   -2.4042    0.0000 C   0  0  0  0  0  0  0  0  0  0  0  0
    4.0292   -3.9042    0.0000 C   0  0  0  0  0  0  0  0  0  0  0  0
    4.5542   -3.0042    0.0000 C   0  0  0  0  0  0  0  0  0  0  0  0
    3.0042   -1.5042    0.0000 O   0  0  0  0  0  0  0  0  0  0  0  0
    4.5542   -4.2042    0.0000 C   0  0  0  0  0  0  0  0  0  0  0  0
    4.5542   -2.4042    0.0000 C   0  0  0  0  0  0  0  0  0  0  0  0
    4.0375    0.2875    0.0000 O   0  0  0  0  0  0  0  0  0  0  0  0
    4.5500   -4.8042    0.0000 C   0  0  0  0  0  0  0  0  0  0  0  0
    5.0667   -3.9042    0.0000 C   0  0  0  0  0  0  0  0  0  0  0  0
    2.9917   -3.3042    0.0000 Cl  0  0  0  0  0  0  0  0  0  0  0  0
    3.5125   -4.2042    0.0000 O   0  0  0  0  0  0  0  0  0  0  0  0
    5.5875   -4.8042    0.0000 C   0  0  0  0  0  0  0  0  0  0  0  0
    5.0667   -5.1042    0.0000 C   0  0  0  0  0  0  0  0  0  0  0  0
    5.5875   -4.2042    0.0000 C   0  0  0  0  0  0  0  0  0  0  0  0
    6.1042   -5.1042    0.0000 Cl  0  0  0  0  0  0  0  0  0  0  0  0
  2  1  1  0
  3  1  1  0
  4  2  1  0
  5 12  1  0
  6  8  1  0
  7  2  1  0
  8  3  1  0
  9 10  1  0
 10  7  2  0
 11  5  1  0
 12 15  2  0
 13  1  2  0
 14 11  1  0
 15  7  1  0
 16  8  2  0
 17 14  2  0
 18 14  1  0
 19  9  1  0
 20 11  1  0
 21 23  1  0
 22 17  1  0
 23 18  2  0
 24 21  1  0
  4  6  2  0
  9  5  2  0
 22 21  2  0
M  END

> <chembl_id>
CHEMBL6230

> <chembl_pref_name>
None

$$$$

     RDKit          2D

 23 25  0  0  0  0  0  0  0  0999 V2000
    4.1292   -2.7542    0.0000 C   0  0  0  0  0  0  0  0  0  0  0  0
    4.6417   -3.0542    0.0000 N   0  0  0  0  0  0  0  0  0  0  0  0
    4.1292   -2.1542    0.0000 N   0  0  0  0  0  0  0  0  0  0  0  0
    5.1667   -2.7542    0.0000 N   0  0  0  0  0  0  0  0  0  0  0  0
    4.1167   -4.5500    0.0000 C   0  0  0  0  0  0  0  0  0  0  0  0
    5.1667   -2.1542    0.0000 C   0  0  0  0  0  0  0  0  0  0  0  0
    3.6000   -4.8500    0.0000 C   0  0  0  0  0  0  0  0  0  0  0  0
    4.6417   -3.6542    0.0000 C   0  0  0  0  0  0  0  0  0  0  0  0
    4.6417   -1.8542    0.0000 C   0  0  0  0  0  0  0  0  0  0  0  0
    4.1250   -3.9542    0.0000 C   0  0  0  0  0  0  0  0  0  0  0  0
    4.6417   -4.8542    0.0000 C   0  0  0  0  0  0  0  0  0  0  0  0
    3.6125   -3.0542    0.0000 O   0  0  0  0  0  0  0  0  0  0  0  0
    3.0792   -4.5500    0.0000 O   0  0  0  0  0  0  0  0  0  0  0  0
    5.1625   -3.9542    0.0000 C   0  0  0  0  0  0  0  0  0  0  0  0
    3.6000   -5.4500    0.0000 C   0  0  0  0  0  0  0  0  0  0  0  0
    4.6417   -1.2542    0.0000 O   0  0  0  0  0  0  0  0  0  0  0  0
    5.1625   -4.5500    0.0000 C   0  0  0  0  0  0  0  0  0  0  0  0
    4.6375   -5.4542    0.0000 Cl  0  0  0  0  0  0  0  0  0  0  0  0
    3.0792   -5.7500    0.0000 C   0  0  0  0  0  0  0  0  0  0  0  0
    4.1167   -5.7500    0.0000 C   0  0  0  0  0  0  0  0  0  0  0  0
    4.1167   -6.3417    0.0000 C   0  0  0  0  0  0  0  0  0  0  0  0
    3.0792   -6.3417    0.0000 C   0  0  0  0  0  0  0  0  0  0  0  0
    3.6000   -6.6500    0.0000 C   0  0  0  0  0  0  0  0  0  0  0  0
  2  1  1  0
  3  1  1  0
  4  2  1  0
  5 10  1  0
  6  9  1  0
  7  5  1  0
  8  2  1  0
  9  3  1  0
 10  8  2  0
 11 17  1  0
 12  1  2  0
 13  7  2  0
 14  8  1  0
 15  7  1  0
 16  9  2  0
 17 14  2  0
 18 11  1  0
 19 15  2  0
 20 15  1  0
 21 20  2  0
 22 19  1  0
 23 21  1  0
  4  6  2  0
  5 11  2  0
 23 22  2  0
M  END

> <chembl_id>
CHEMBL6254

> <chembl_pref_name>
None

$$$$

     RDKit          2D

 23 25  0  0  0  0  0  0  0  0999 V2000
    3.5250   -1.2125    0.0000 C   0  0  0  0  0  0  0  0  0  0  0  0
    4.0375   -1.5125    0.0000 N   0  0  0  0  0  0  0  0  0  0  0  0
    3.5250   -0.6125    0.0000 N   0  0  0  0  0  0  0  0  0  0  0  0
    4.5542   -1.2125    0.0000 N   0  0  0  0  0  0  0  0  0  0  0  0
    4.5542   -0.6125    0.0000 C   0  0  0  0  0  0  0  0  0  0  0  0
    4.0375   -0.3125    0.0000 C   0  0  0  0  0  0  0  0  0  0  0  0
    4.0375   -2.1125    0.0000 C   0  0  0  0  0  0  0  0  0  0  0  0
    4.0292   -3.3042    0.0000 C   0  0  0  0  0  0  0  0  0  0  0  0
    3.5125   -3.0042    0.0000 C   0  0  0  0  0  0  0  0  0  0  0  0
    4.0292   -3.9042    0.0000 C   0  0  0  0  0  0  0  0  0  0  0  0
    3.5167   -2.4042    0.0000 C   0  0  0  0  0  0  0  0  0  0  0  0
    4.5542   -3.0042    0.0000 C   0  0  0  0  0  0  0  0  0  0  0  0
    3.0042   -1.5042    0.0000 O   0  0  0  0  0  0  0  0  0  0  0  0
    4.5542   -2.4042    0.0000 C   0  0  0  0  0  0  0  0  0  0  0  0
    4.0375    0.2875    0.0000 O   0  0  0  0  0  0  0  0  0  0  0  0
    4.5542   -4.2042    0.0000 C   0  0  0  0  0  0  0  0  0  0  0  0
    3.5125   -4.2042    0.0000 O   0  0  0  0  0  0  0  0  0  0  0  0
    2.9917   -3.3042    0.0000 C   0  0  0  0  0  0  0  0  0  0  0  0
    5.0667   -3.9042    0.0000 C   0  0  0  0  0  0  0  0  0  0  0  0
    4.5500   -4.8042    0.0000 C   0  0  0  0  0  0  0  0  0  0  0  0
    5.0667   -5.1042    0.0000 C   0  0  0  0  0  0  0  0  0  0  0  0
    5.5875   -4.2042    0.0000 C   0  0  0  0  0  0  0  0  0  0  0  0
    5.5875   -4.8042    0.0000 C   0  0  0  0  0  0  0  0  0  0  0  0
  2  1  1  0
  3  1  1  0
  4  2  1  0
  5  6  1  0
  6  3  1  0
  7  2  1  0
  8 12  1  0
  9 11  1  0
 10  8  1  0
 11  7  2  0
 12 14  2  0
 13  1  2  0
 14  7  1  0
 15  6  2  0
 16 10  1  0
 17 10  1  0
 18  9  1  0
 19 16  1  0
 20 16  2  0
 21 20  1  0
 22 19  2  0
 23 21  2  0
  4  5  2  0
  9  8  2  0
 22 23  1  0
M  END

> <chembl_id>
CHEMBL6268

> <chembl_pref_name>
None

$$$$

     RDKit          2D

 32 36  0  0  0  0  0  0  0  0999 V2000
    5.5375   -0.1792    0.0000 C   0  0  0  0  0  0  0  0  0  0  0  0
    1.9667   -1.4250    0.0000 C   0  0  0  0  0  0  0  0  0  0  0  0
    1.9750   -2.2542    0.0000 N   0  0  0  0  0  0  0  0  0  0  0  0
    6.3625   -0.1667    0.0000 C   0  0  0  0  0  0  0  0  0  0  0  0
    4.8250    0.2333    0.0000 C   0  0  0  0  0  0  0  0  0  0  0  0
    0.5417   -2.2542    0.0000 C   0  0  0  0  0  0  0  0  0  0  0  0
    5.9417   -0.8917    0.0000 C   0  0  0  0  0  0  0  0  0  0  0  0
    1.2625   -2.6667    0.0000 C   0  0  0  0  0  0  0  0  0  0  0  0
    1.2542   -1.0167    0.0000 N   0  0  0  0  0  0  0  0  0  0  0  0
    0.5417   -1.4292    0.0000 C   0  0  0  0  0  0  0  0  0  0  0  0
    2.6792   -1.0125    0.0000 N   0  0  0  0  0  0  0  0  0  0  0  0
    4.1042   -0.1792    0.0000 N   0  0  0  0  0  0  0  0  0  0  0  0
   -0.1708   -2.6750    0.0000 C   0  0  0  0  0  0  0  0  0  0  0  0
   -0.1708   -1.0167    0.0000 C   0  0  0  0  0  0  0  0  0  0  0  0
   -0.8833   -2.2625    0.0000 C   0  0  0  0  0  0  0  0  0  0  0  0
   -0.8833   -1.4375    0.0000 C   0  0  0  0  0  0  0  0  0  0  0  0
    4.8167    1.0583    0.0000 O   0  0  0  0  0  0  0  0  0  0  0  0
    7.0750    0.2458    0.0000 C   0  0  0  0  0  0  0  0  0  0  0  0
    3.4000   -1.4167    0.0000 C   0  0  0  0  0  0  0  0  0  0  0  0
    2.6792   -0.1875    0.0000 C   0  0  0  0  0  0  0  0  0  0  0  0
    3.3917    0.2333    0.0000 C   0  0  0  0  0  0  0  0  0  0  0  0
    4.1125   -1.0042    0.0000 C   0  0  0  0  0  0  0  0  0  0  0  0
    1.2542   -3.4917    0.0000 N   0  0  0  0  0  0  0  0  0  0  0  0
   -1.6000   -2.6750    0.0000 O   0  0  0  0  0  0  0  0  0  0  0  0
   -1.5958   -1.0250    0.0000 O   0  0  0  0  0  0  0  0  0  0  0  0
    7.7875   -0.1667    0.0000 C   0  0  0  0  0  0  0  0  0  0  0  0
    7.0625    1.0708    0.0000 C   0  0  0  0  0  0  0  0  0  0  0  0
   -2.3125   -1.4375    0.0000 C   0  0  0  0  0  0  0  0  0  0  0  0
   -2.3125   -2.2625    0.0000 C   0  0  0  0  0  0  0  0  0  0  0  0
    7.7750    1.4833    0.0000 C   0  0  0  0  0  0  0  0  0  0  0  0
    8.4917    0.2500    0.0000 C   0  0  0  0  0  0  0  0  0  0  0  0
    8.4917    1.0750    0.0000 C   0  0  0  0  0  0  0  0  0  0  0  0
  2 11  1  0
  3  2  1  0
  4  1  1  0
  5  1  1  0
  6 10  1  0
  7  1  1  0
  8  3  2  0
  9  2  2  0
 10  9  1  0
 11 19  1  0
 12  5  1  0
 13  6  2  0
 14 10  2  0
 15 16  2  0
 16 14  1  0
 17  5  2  0
 18  4  1  0
 19 22  1  0
 20 21  1  0
 21 12  1  0
 22 12  1  0
 23  8  1  0
 24 15  1  0
 25 16  1  0
 26 18  2  0
 27 18  1  0
 28 25  1  0
 29 24  1  0
 30 27  2  0
 31 26  1  0
 32 30  1  0
  7  4  1  0
 20 11  1  0
 31 32  2  0
  6  8  1  0
 13 15  1  0
M  END

> <chembl_id>
CHEMBL414196

> <chembl_pref_name>
None

$$$$

     RDKit          2D

 24 26  0  0  0  0  0  0  0  0999 V2000
    6.3417   -2.4250    0.0000 C   0  0  0  0  0  0  0  0  0  0  0  0
    6.8542   -2.7250    0.0000 N   0  0  0  0  0  0  0  0  0  0  0  0
    6.3417   -1.8250    0.0000 N   0  0  0  0  0  0  0  0  0  0  0  0
    7.3750   -2.4250    0.0000 N   0  0  0  0  0  0  0  0  0  0  0  0
    7.3750   -1.8250    0.0000 C   0  0  0  0  0  0  0  0  0  0  0  0
    6.8542   -1.5250    0.0000 C   0  0  0  0  0  0  0  0  0  0  0  0
    6.8500   -5.1167    0.0000 C   0  0  0  0  0  0  0  0  0  0  0  0
    6.8542   -3.3250    0.0000 C   0  0  0  0  0  0  0  0  0  0  0  0
    5.8167   -2.7167    0.0000 O   0  0  0  0  0  0  0  0  0  0  0  0
    6.8500   -4.5167    0.0000 C   0  0  0  0  0  0  0  0  0  0  0  0
    7.3667   -5.4167    0.0000 C   0  0  0  0  0  0  0  0  0  0  0  0
    6.8542   -0.9250    0.0000 O   0  0  0  0  0  0  0  0  0  0  0  0
    6.3292   -5.4167    0.0000 O   0  0  0  0  0  0  0  0  0  0  0  0
    7.3667   -3.6167    0.0000 C   0  0  0  0  0  0  0  0  0  0  0  0
    6.3292   -3.6167    0.0000 C   0  0  0  0  0  0  0  0  0  0  0  0
    6.3292   -4.2167    0.0000 C   0  0  0  0  0  0  0  0  0  0  0  0
    7.3667   -4.2167    0.0000 C   0  0  0  0  0  0  0  0  0  0  0  0
    7.3667   -6.0167    0.0000 C   0  0  0  0  0  0  0  0  0  0  0  0
    7.8792   -5.1167    0.0000 C   0  0  0  0  0  0  0  0  0  0  0  0
    8.4042   -6.0167    0.0000 C   0  0  0  0  0  0  0  0  0  0  0  0
    8.4042   -5.4167    0.0000 C   0  0  0  0  0  0  0  0  0  0  0  0
    7.8875   -6.3167    0.0000 C   0  0  0  0  0  0  0  0  0  0  0  0
    8.9250   -6.3167    0.0000 O   0  0  0  0  0  0  0  0  0  0  0  0
    9.4417   -6.0167    0.0000 C   0  0  0  0  0  0  0  0  0  0  0  0
  2  1  1  0
  3  1  1  0
  4  2  1  0
  5  6  1  0
  6  3  1  0
  7 10  1  0
  8  2  1  0
  9  1  2  0
 10 16  2  0
 11  7  1  0
 12  6  2  0
 13  7  2  0
 14  8  1  0
 15  8  2  0
 16 15  1  0
 17 14  2  0
 18 11  2  0
 19 11  1  0
 20 21  1  0
 21 19  2  0
 22 18  1  0
 23 20  1  0
 24 23  1  0
  4  5  2  0
 10 17  1  0
 22 20  2  0
M  END

> <chembl_id>
CHEMBL268528

> <chembl_pref_name>
None

$$$$

     RDKit          2D

 29 32  0  0  0  0  0  0  0  0999 V2000
    4.8417    0.2333    0.0000 S   0  0  0  0  0  0  0  0  0  0  0  0
    1.9750   -1.4292    0.0000 C   0  0  0  0  0  0  0  0  0  0  0  0
    1.9750   -2.2542    0.0000 N   0  0  0  0  0  0  0  0  0  0  0  0
    0.5417   -2.2542    0.0000 C   0  0  0  0  0  0  0  0  0  0  0  0
    1.2542   -2.6667    0.0000 C   0  0  0  0  0  0  0  0  0  0  0  0
    4.1167   -0.1917    0.0000 N   0  0  0  0  0  0  0  0  0  0  0  0
    1.2542   -1.0167    0.0000 N   0  0  0  0  0  0  0  0  0  0  0  0
    5.5625    0.6500    0.0000 C   0  0  0  0  0  0  0  0  0  0  0  0
    0.5417   -1.4292    0.0000 C   0  0  0  0  0  0  0  0  0  0  0  0
    2.6917   -1.0167    0.0000 N   0  0  0  0  0  0  0  0  0  0  0  0
   -0.1708   -2.6667    0.0000 C   0  0  0  0  0  0  0  0  0  0  0  0
   -0.1708   -1.0167    0.0000 C   0  0  0  0  0  0  0  0  0  0  0  0
    6.3250    0.3125    0.0000 S   0  0  0  0  0  0  0  0  0  0  0  0
   -0.8833   -2.2542    0.0000 C   0  0  0  0  0  0  0  0  0  0  0  0
   -0.8833   -1.4375    0.0000 C   0  0  0  0  0  0  0  0  0  0  0  0
    4.4167    0.9500    0.0000 O   0  0  0  0  0  0  0  0  0  0  0  0
    5.2625   -0.4917    0.0000 O   0  0  0  0  0  0  0  0  0  0  0  0
    3.4042    0.2208    0.0000 C   0  0  0  0  0  0  0  0  0  0  0  0
    4.1167   -1.0167    0.0000 C   0  0  0  0  0  0  0  0  0  0  0  0
    2.6917   -0.1917    0.0000 C   0  0  0  0  0  0  0  0  0  0  0  0
    3.4042   -1.4292    0.0000 C   0  0  0  0  0  0  0  0  0  0  0  0
    5.6417    1.4833    0.0000 C   0  0  0  0  0  0  0  0  0  0  0  0
    6.8750    0.9375    0.0000 C   0  0  0  0  0  0  0  0  0  0  0  0
    6.4417    1.6708    0.0000 C   0  0  0  0  0  0  0  0  0  0  0  0
    1.2542   -3.4917    0.0000 N   0  0  0  0  0  0  0  0  0  0  0  0
   -1.6083   -2.6792    0.0000 O   0  0  0  0  0  0  0  0  0  0  0  0
   -1.6083   -1.0167    0.0000 O   0  0  0  0  0  0  0  0  0  0  0  0
   -2.3208   -1.4375    0.0000 C   0  0  0  0  0  0  0  0  0  0  0  0
   -2.3250   -2.2667    0.0000 C   0  0  0  0  0  0  0  0  0  0  0  0
  2 10  1  0
  3  2  1  0
  4  9  1  0
  5  3  2  0
  6  1  1  0
  7  2  2  0
  8  1  1  0
  9  7  1  0
 10 21  1  0
 11  4  2  0
 12  9  2  0
 13  8  1  0
 14 15  2  0
 15 12  1  0
 16  1  2  0
 17  1  2  0
 18  6  1  0
 19  6  1  0
 20 18  1  0
 21 19  1  0
 22  8  2  0
 23 13  1  0
 24 22  1  0
 25  5  1  0
 26 14  1  0
 27 15  1  0
 28 27  1  0
 29 26  1  0
 23 24  2  0
 20 10  1  0
  4  5  1  0
 11 14  1  0
M  END

> <chembl_id>
CHEMBL112998

> <chembl_pref_name>
None

$$$$

     RDKit          2D

 46 52  0  0  0  0  0  0  0  0999 V2000
   -3.6625   -1.6917    0.0000 N   0  0  0  0  0  0  0  0  0  0  0  0
    4.2792   -1.7250    0.0000 N   0  0  0  0  0  0  0  0  0  0  0  0
   -4.3750   -1.2792    0.0000 C   0  0  0  0  0  0  0  0  0  0  0  0
    5.0000   -1.3042    0.0000 C   0  0  0  0  0  0  0  0  0  0  0  0
    5.0000   -0.4792    0.0000 C   0  0  0  0  0  0  0  0  0  0  0  0
   -4.3833   -0.4542    0.0000 C   0  0  0  0  0  0  0  0  0  0  0  0
   -3.6625   -0.0417    0.0000 C   0  0  0  0  0  0  0  0  0  0  0  0
    4.2792   -0.0667    0.0000 C   0  0  0  0  0  0  0  0  0  0  0  0
   -2.9458   -1.2792    0.0000 C   0  0  0  0  0  0  0  0  0  0  0  0
    3.5667   -1.3125    0.0000 C   0  0  0  0  0  0  0  0  0  0  0  0
   -3.6625   -2.5167    0.0000 C   0  0  0  0  0  0  0  0  0  0  0  0
    4.2875   -2.5500    0.0000 C   0  0  0  0  0  0  0  0  0  0  0  0
   -2.9458   -0.4542    0.0000 C   0  0  0  0  0  0  0  0  0  0  0  0
    3.5667   -0.4875    0.0000 C   0  0  0  0  0  0  0  0  0  0  0  0
   -3.6708    0.7833    0.0000 N   0  0  0  0  0  0  0  0  0  0  0  0
    4.3042    0.8083    0.0000 N   0  0  0  0  0  0  0  0  0  0  0  0
   -1.5208   -3.7625    0.0000 C   0  0  0  0  0  0  0  0  0  0  0  0
    2.1500   -3.7792    0.0000 C   0  0  0  0  0  0  0  0  0  0  0  0
   -1.5208   -2.9292    0.0000 C   0  0  0  0  0  0  0  0  0  0  0  0
   -2.2333   -4.1750    0.0000 C   0  0  0  0  0  0  0  0  0  0  0  0
    2.8625   -4.1917    0.0000 C   0  0  0  0  0  0  0  0  0  0  0  0
    2.1500   -2.9667    0.0000 C   0  0  0  0  0  0  0  0  0  0  0  0
    3.5750   -2.9667    0.0000 C   0  0  0  0  0  0  0  0  0  0  0  0
   -2.9458   -2.9292    0.0000 C   0  0  0  0  0  0  0  0  0  0  0  0
    3.5667   -3.7875    0.0000 C   0  0  0  0  0  0  0  0  0  0  0  0
   -2.9458   -3.7625    0.0000 C   0  0  0  0  0  0  0  0  0  0  0  0
    2.8542   -2.5542    0.0000 C   0  0  0  0  0  0  0  0  0  0  0  0
   -2.2333   -2.5167    0.0000 C   0  0  0  0  0  0  0  0  0  0  0  0
   -5.0958   -0.0500    0.0000 C   0  0  0  0  0  0  0  0  0  0  0  0
    5.7042   -0.0667    0.0000 C   0  0  0  0  0  0  0  0  0  0  0  0
    5.7167   -1.7167    0.0000 C   0  0  0  0  0  0  0  0  0  0  0  0
   -5.0833   -1.7000    0.0000 C   0  0  0  0  0  0  0  0  0  0  0  0
   -2.9500    1.1958    0.0000 C   0  0  0  0  0  0  0  0  0  0  0  0
    3.4792    0.8083    0.0000 C   0  0  0  0  0  0  0  0  0  0  0  0
    6.4250   -0.4750    0.0000 C   0  0  0  0  0  0  0  0  0  0  0  0
   -5.8083   -0.4625    0.0000 C   0  0  0  0  0  0  0  0  0  0  0  0
   -5.8000   -1.2917    0.0000 C   0  0  0  0  0  0  0  0  0  0  0  0
    6.4292   -1.3042    0.0000 C   0  0  0  0  0  0  0  0  0  0  0  0
    2.7625    1.2125    0.0000 C   0  0  0  0  0  0  0  0  0  0  0  0
   -2.2375    0.7875    0.0000 C   0  0  0  0  0  0  0  0  0  0  0  0
   -0.0958    1.2083    0.0000 C   0  0  0  0  0  0  0  0  0  0  0  0
    0.6167    0.7958    0.0000 C   0  0  0  0  0  0  0  0  0  0  0  0
    1.3292    1.2083    0.0000 C   0  0  0  0  0  0  0  0  0  0  0  0
    2.0500    0.8000    0.0000 C   0  0  0  0  0  0  0  0  0  0  0  0
   -1.5208    1.2000    0.0000 C   0  0  0  0  0  0  0  0  0  0  0  0
   -0.8083    0.7958    0.0000 C   0  0  0  0  0  0  0  0  0  0  0  0
  2 12  1  0
  3  1  1  0
  4  2  2  0
  5  4  1  0
  6  3  1  0
  7 13  2  0
  8 14  1  0
  9  1  2  0
 10  2  1  0
 11  1  1  0
 12 23  1  0
 13  9  1  0
 14 10  2  0
 15  7  1  0
 16  8  1  0
 17 19  1  0
 18 17  1  0
 19 28  2  0
 20 26  1  0
 21 18  2  0
 22 18  1  0
 23 27  1  0
 24 11  1  0
 25 21  1  0
 26 24  2  0
 27 22  2  0
 28 24  1  0
 29  6  2  0
 30  5  1  0
 31  4  1  0
 32  3  2  0
 33 15  1  0
 34 39  1  0
 35 38  1  0
 36 37  2  0
 37 32  1  0
 38 31  2  0
 39 44  1  0
 40 33  1  0
 41 46  1  0
 42 41  1  0
 43 42  1  0
 44 43  1  0
 45 40  1  0
 46 45  1  0
  6  7  1  0
 17 20  2  0
 36 29  1  0
 23 25  2  0
  8  5  2  0
 16 34  1  0
 30 35  2  0
M  CHG  2   1   1   2   1
M  END

> <chembl_id>
CHEMBL6266

> <chembl_pref_name>
None

$$$$

     RDKit          2D

 36 41  0  0  0  0  0  0  0  0999 V2000
   -2.1500   -0.1667    0.0000 N   0  0  0  0  0  0  0  0  0  0  0  0
    2.5042   -0.1292    0.0000 N   0  0  0  0  0  0  0  0  0  0  0  0
    3.2042    0.3125    0.0000 C   0  0  0  0  0  0  0  0  0  0  0  0
   -2.8708    0.2375    0.0000 C   0  0  0  0  0  0  0  0  0  0  0  0
   -2.8708    1.0708    0.0000 C   0  0  0  0  0  0  0  0  0  0  0  0
    3.1667    1.1375    0.0000 C   0  0  0  0  0  0  0  0  0  0  0  0
   -2.1500   -0.9917    0.0000 C   0  0  0  0  0  0  0  0  0  0  0  0
    2.5417   -0.9542    0.0000 C   0  0  0  0  0  0  0  0  0  0  0  0
    1.7750    0.2458    0.0000 C   0  0  0  0  0  0  0  0  0  0  0  0
   -1.4375    0.2458    0.0000 C   0  0  0  0  0  0  0  0  0  0  0  0
    2.4375    1.5208    0.0000 C   0  0  0  0  0  0  0  0  0  0  0  0
   -2.1583    1.4833    0.0000 C   0  0  0  0  0  0  0  0  0  0  0  0
   -0.2000   -2.1167    0.0000 C   0  0  0  0  0  0  0  0  0  0  0  0
    0.6167   -2.1167    0.0000 C   0  0  0  0  0  0  0  0  0  0  0  0
   -1.4458    1.0708    0.0000 C   0  0  0  0  0  0  0  0  0  0  0  0
    1.7417    1.0833    0.0000 C   0  0  0  0  0  0  0  0  0  0  0  0
   -0.6125   -1.4042    0.0000 C   0  0  0  0  0  0  0  0  0  0  0  0
    1.0292   -1.4042    0.0000 C   0  0  0  0  0  0  0  0  0  0  0  0
   -1.4333   -1.4042    0.0000 C   0  0  0  0  0  0  0  0  0  0  0  0
    1.8542   -1.4000    0.0000 C   0  0  0  0  0  0  0  0  0  0  0  0
   -2.1708    2.3083    0.0000 N   0  0  0  0  0  0  0  0  0  0  0  0
    2.4000    2.3458    0.0000 N   0  0  0  0  0  0  0  0  0  0  0  0
   -3.5833    1.4750    0.0000 C   0  0  0  0  0  0  0  0  0  0  0  0
    3.8625    1.5833    0.0000 C   0  0  0  0  0  0  0  0  0  0  0  0
    3.9375   -0.0667    0.0000 C   0  0  0  0  0  0  0  0  0  0  0  0
   -3.5833   -0.1792    0.0000 C   0  0  0  0  0  0  0  0  0  0  0  0
    1.0292   -2.8292    0.0000 C   0  0  0  0  0  0  0  0  0  0  0  0
   -0.6208   -2.8375    0.0000 C   0  0  0  0  0  0  0  0  0  0  0  0
    1.8542   -2.8292    0.0000 C   0  0  0  0  0  0  0  0  0  0  0  0
   -1.4458   -2.8292    0.0000 C   0  0  0  0  0  0  0  0  0  0  0  0
    2.2667   -2.1167    0.0000 C   0  0  0  0  0  0  0  0  0  0  0  0
   -1.8500   -2.1167    0.0000 C   0  0  0  0  0  0  0  0  0  0  0  0
   -4.2958    1.0625    0.0000 C   0  0  0  0  0  0  0  0  0  0  0  0
    4.5917    1.2000    0.0000 C   0  0  0  0  0  0  0  0  0  0  0  0
   -4.2958    0.2333    0.0000 C   0  0  0  0  0  0  0  0  0  0  0  0
    4.6292    0.3750    0.0000 C   0  0  0  0  0  0  0  0  0  0  0  0
  2  8  1  0
  3  2  1  0
  4  1  1  0
  5  4  1  0
  6  3  1  0
  7  1  1  0
  8 20  1  0
  9  2  2  0
 10  1  2  0
 11 16  2  0
 12 15  2  0
 13 17  2  0
 14 13  1  0
 15 10  1  0
 16  9  1  0
 17 19  1  0
 18 14  1  0
 19  7  1  0
 20 18  2  0
 21 12  1  0
 22 11  1  0
 23  5  2  0
 24  6  2  0
 25  3  2  0
 26  4  2  0
 27 14  2  0
 28 30  2  0
 29 27  1  0
 30 32  1  0
 31 29  2  0
 32 19  2  0
 33 35  2  0
 34 36  2  0
 35 26  1  0
 36 25  1  0
  5 12  1  0
 33 23  1  0
 28 13  1  0
 31 20  1  0
 11  6  1  0
 34 24  1  0
M  CHG  2   1   1   2   1
M  END

> <chembl_id>
CHEMBL6354

> <chembl_pref_name>
None

$$$$

     RDKit          2D

 38 43  0  0  0  0  0  0  0  0999 V2000
   -1.8208   -0.9292    0.0000 N   0  0  0  0  0  0  0  0  0  0  0  0
    5.0667   -1.6500    0.0000 N   0  0  0  0  0  0  0  0  0  0  0  0
    5.7667   -1.2167    0.0000 C   0  0  0  0  0  0  0  0  0  0  0  0
   -2.5750   -0.6042    0.0000 C   0  0  0  0  0  0  0  0  0  0  0  0
   -2.6708    0.2208    0.0000 C   0  0  0  0  0  0  0  0  0  0  0  0
    5.7500   -0.3917    0.0000 C   0  0  0  0  0  0  0  0  0  0  0  0
    5.0875   -2.4750    0.0000 C   0  0  0  0  0  0  0  0  0  0  0  0
   -1.7208   -1.7500    0.0000 C   0  0  0  0  0  0  0  0  0  0  0  0
   -1.1583   -0.4375    0.0000 C   0  0  0  0  0  0  0  0  0  0  0  0
    4.3417   -1.2542    0.0000 C   0  0  0  0  0  0  0  0  0  0  0  0
   -2.0125    0.7083    0.0000 C   0  0  0  0  0  0  0  0  0  0  0  0
    5.0292    0.0083    0.0000 C   0  0  0  0  0  0  0  0  0  0  0  0
    4.3250   -0.4167    0.0000 C   0  0  0  0  0  0  0  0  0  0  0  0
   -1.2583    0.3875    0.0000 C   0  0  0  0  0  0  0  0  0  0  0  0
    4.3792   -2.9000    0.0000 C   0  0  0  0  0  0  0  0  0  0  0  0
   -0.9625   -2.0750    0.0000 C   0  0  0  0  0  0  0  0  0  0  0  0
   -2.1208    1.5333    0.0000 N   0  0  0  0  0  0  0  0  0  0  0  0
    5.0042    0.8333    0.0000 N   0  0  0  0  0  0  0  0  0  0  0  0
    2.7375   -2.8667    0.0000 C   0  0  0  0  0  0  0  0  0  0  0  0
    0.6875   -2.1125    0.0000 C   0  0  0  0  0  0  0  0  0  0  0  0
    1.5125   -2.1292    0.0000 C   0  0  0  0  0  0  0  0  0  0  0  0
    1.9125   -2.8500    0.0000 C   0  0  0  0  0  0  0  0  0  0  0  0
   -0.5708   -2.8000    0.0000 C   0  0  0  0  0  0  0  0  0  0  0  0
   -0.5333   -1.3750    0.0000 C   0  0  0  0  0  0  0  0  0  0  0  0
    3.9792   -2.1750    0.0000 C   0  0  0  0  0  0  0  0  0  0  0  0
    3.9542   -3.6042    0.0000 C   0  0  0  0  0  0  0  0  0  0  0  0
    0.2542   -2.8167    0.0000 C   0  0  0  0  0  0  0  0  0  0  0  0
    3.1292   -3.5917    0.0000 C   0  0  0  0  0  0  0  0  0  0  0  0
    0.2917   -1.3917    0.0000 C   0  0  0  0  0  0  0  0  0  0  0  0
    3.1542   -2.1625    0.0000 C   0  0  0  0  0  0  0  0  0  0  0  0
    6.4542    0.0333    0.0000 C   0  0  0  0  0  0  0  0  0  0  0  0
   -3.4333    0.5375    0.0000 C   0  0  0  0  0  0  0  0  0  0  0  0
   -3.2375   -1.1042    0.0000 C   0  0  0  0  0  0  0  0  0  0  0  0
    6.4917   -1.6167    0.0000 C   0  0  0  0  0  0  0  0  0  0  0  0
    7.1792   -0.3542    0.0000 C   0  0  0  0  0  0  0  0  0  0  0  0
   -4.0958    0.0458    0.0000 C   0  0  0  0  0  0  0  0  0  0  0  0
    7.2000   -1.1875    0.0000 C   0  0  0  0  0  0  0  0  0  0  0  0
   -3.9958   -0.7750    0.0000 C   0  0  0  0  0  0  0  0  0  0  0  0
  2  7  1  0
  3  2  1  0
  4  1  1  0
  5  4  1  0
  6  3  1  0
  7 15  1  0
  8  1  1  0
  9  1  2  0
 10  2  2  0
 11 14  2  0
 12 13  2  0
 13 10  1  0
 14  9  1  0
 15 26  2  0
 16  8  1  0
 17 11  1  0
 18 12  1  0
 19 22  1  0
 20 29  2  0
 21 20  1  0
 22 21  1  0
 23 16  1  0
 24 16  2  0
 25 30  2  0
 26 28  1  0
 27 23  2  0
 28 19  2  0
 29 24  1  0
 30 19  1  0
 31  6  2  0
 32  5  2  0
 33  4  2  0
 34  3  2  0
 35 37  2  0
 36 38  2  0
 37 34  1  0
 38 33  1  0
  5 11  1  0
 20 27  1  0
 36 32  1  0
 25 15  1  0
  6 12  1  0
 35 31  1  0
M  CHG  2   1   1   2   1
M  END

> <chembl_id>
CHEMBL429017

> <chembl_pref_name>
None

$$$$

     RDKit          2D

 38 43  0  0  0  0  0  0  0  0999 V2000
    3.0292   -1.4167    0.0000 N   0  0  0  0  0  0  0  0  0  0  0  0
   -3.5083   -1.4167    0.0000 N   0  0  0  0  0  0  0  0  0  0  0  0
    3.7500   -1.0000    0.0000 C   0  0  0  0  0  0  0  0  0  0  0  0
   -4.2208   -1.0042    0.0000 C   0  0  0  0  0  0  0  0  0  0  0  0
    3.7417   -0.1750    0.0000 C   0  0  0  0  0  0  0  0  0  0  0  0
   -4.2208   -0.1792    0.0000 C   0  0  0  0  0  0  0  0  0  0  0  0
    3.0375   -2.2417    0.0000 C   0  0  0  0  0  0  0  0  0  0  0  0
   -3.5083   -2.2417    0.0000 C   0  0  0  0  0  0  0  0  0  0  0  0
   -2.7875   -1.0042    0.0000 C   0  0  0  0  0  0  0  0  0  0  0  0
    2.3167   -1.0042    0.0000 C   0  0  0  0  0  0  0  0  0  0  0  0
   -3.5083    0.2333    0.0000 C   0  0  0  0  0  0  0  0  0  0  0  0
    3.0292    0.2375    0.0000 C   0  0  0  0  0  0  0  0  0  0  0  0
    2.3167   -0.1750    0.0000 C   0  0  0  0  0  0  0  0  0  0  0  0
   -2.7958   -0.1792    0.0000 C   0  0  0  0  0  0  0  0  0  0  0  0
    0.1750   -3.8917    0.0000 C   0  0  0  0  0  0  0  0  0  0  0  0
   -0.6458   -3.8917    0.0000 C   0  0  0  0  0  0  0  0  0  0  0  0
    0.8917   -3.4792    0.0000 C   0  0  0  0  0  0  0  0  0  0  0  0
   -1.3625   -3.4875    0.0000 C   0  0  0  0  0  0  0  0  0  0  0  0
   -2.7958   -2.6542    0.0000 C   0  0  0  0  0  0  0  0  0  0  0  0
    2.3167   -2.6542    0.0000 C   0  0  0  0  0  0  0  0  0  0  0  0
   -3.5083    1.0583    0.0000 N   0  0  0  0  0  0  0  0  0  0  0  0
    3.0500    1.1208    0.0000 N   0  0  0  0  0  0  0  0  0  0  0  0
   -1.3625   -2.6542    0.0000 C   0  0  0  0  0  0  0  0  0  0  0  0
    0.8917   -2.6542    0.0000 C   0  0  0  0  0  0  0  0  0  0  0  0
   -2.0833   -3.9000    0.0000 C   0  0  0  0  0  0  0  0  0  0  0  0
    1.6042   -3.8917    0.0000 C   0  0  0  0  0  0  0  0  0  0  0  0
   -2.0833   -2.2417    0.0000 C   0  0  0  0  0  0  0  0  0  0  0  0
   -2.7958   -3.4875    0.0000 C   0  0  0  0  0  0  0  0  0  0  0  0
    2.3167   -3.4792    0.0000 C   0  0  0  0  0  0  0  0  0  0  0  0
    1.6042   -2.2417    0.0000 C   0  0  0  0  0  0  0  0  0  0  0  0
    4.4542    0.2458    0.0000 C   0  0  0  0  0  0  0  0  0  0  0  0
   -4.9375    0.2250    0.0000 C   0  0  0  0  0  0  0  0  0  0  0  0
    4.4625   -1.4125    0.0000 C   0  0  0  0  0  0  0  0  0  0  0  0
   -4.9333   -1.4250    0.0000 C   0  0  0  0  0  0  0  0  0  0  0  0
   -5.6583   -0.1875    0.0000 C   0  0  0  0  0  0  0  0  0  0  0  0
    5.1750   -0.1667    0.0000 C   0  0  0  0  0  0  0  0  0  0  0  0
   -5.6458   -1.0167    0.0000 C   0  0  0  0  0  0  0  0  0  0  0  0
    5.1792   -0.9917    0.0000 C   0  0  0  0  0  0  0  0  0  0  0  0
  2  8  1  0
  3  1  2  0
  4  2  1  0
  5  3  1  0
  6  4  1  0
  7  1  1  0
  8 19  1  0
  9  2  2  0
 10  1  1  0
 11 14  2  0
 12 13  1  0
 13 10  2  0
 14  9  1  0
 15 17  1  0
 16 15  2  0
 17 24  2  0
 18 16  1  0
 19 28  2  0
 20  7  1  0
 21 11  1  0
 22 12  1  0
 23 18  1  0
 24 30  1  0
 25 18  2  0
 26 29  2  0
 27 23  2  0
 28 25  1  0
 29 20  1  0
 30 20  2  0
 31  5  1  0
 32  6  2  0
 33  3  1  0
 34  4  2  0
 35 37  2  0
 36 38  1  0
 37 34  1  0
 38 33  2  0
 12  5  2  0
 26 17  1  0
 31 36  2  0
 19 27  1  0
  6 11  1  0
 35 32  1  0
M  CHG  2   1   1   2   1
M  END

> <chembl_id>
CHEMBL6361

> <chembl_pref_name>
None

$$$$

     RDKit          2D

 46 51  0  0  0  0  0  0  0  0999 V2000
   -4.8125   -2.4125    0.0000 N   0  0  0  0  0  0  0  0  0  0  0  0
    3.1292   -2.4417    0.0000 N   0  0  0  0  0  0  0  0  0  0  0  0
   -5.5333   -2.0000    0.0000 C   0  0  0  0  0  0  0  0  0  0  0  0
    3.8500   -2.0250    0.0000 C   0  0  0  0  0  0  0  0  0  0  0  0
    3.8500   -1.2000    0.0000 C   0  0  0  0  0  0  0  0  0  0  0  0
   -5.5333   -1.1750    0.0000 C   0  0  0  0  0  0  0  0  0  0  0  0
    2.4167   -2.0292    0.0000 C   0  0  0  0  0  0  0  0  0  0  0  0
   -4.0958   -2.0000    0.0000 C   0  0  0  0  0  0  0  0  0  0  0  0
   -4.8125   -3.2375    0.0000 C   0  0  0  0  0  0  0  0  0  0  0  0
    3.1375   -3.2667    0.0000 C   0  0  0  0  0  0  0  0  0  0  0  0
    3.1292   -0.7875    0.0000 C   0  0  0  0  0  0  0  0  0  0  0  0
   -4.8125   -0.7542    0.0000 C   0  0  0  0  0  0  0  0  0  0  0  0
   -4.0958   -1.1667    0.0000 C   0  0  0  0  0  0  0  0  0  0  0  0
    2.4167   -1.2000    0.0000 C   0  0  0  0  0  0  0  0  0  0  0  0
   -4.8208    0.0708    0.0000 N   0  0  0  0  0  0  0  0  0  0  0  0
    3.1542    0.0875    0.0000 N   0  0  0  0  0  0  0  0  0  0  0  0
   -4.0958   -3.6500    0.0000 C   0  0  0  0  0  0  0  0  0  0  0  0
    2.4250   -3.6792    0.0000 C   0  0  0  0  0  0  0  0  0  0  0  0
   -6.2417   -0.7667    0.0000 C   0  0  0  0  0  0  0  0  0  0  0  0
    4.5542   -0.7792    0.0000 C   0  0  0  0  0  0  0  0  0  0  0  0
    4.5667   -2.4375    0.0000 C   0  0  0  0  0  0  0  0  0  0  0  0
   -6.2292   -2.4167    0.0000 C   0  0  0  0  0  0  0  0  0  0  0  0
   -4.1000    0.4833    0.0000 C   0  0  0  0  0  0  0  0  0  0  0  0
    2.3292    0.0875    0.0000 C   0  0  0  0  0  0  0  0  0  0  0  0
   -4.0958   -4.4750    0.0000 C   0  0  0  0  0  0  0  0  0  0  0  0
   -3.3833   -3.2375    0.0000 C   0  0  0  0  0  0  0  0  0  0  0  0
    1.7042   -3.2667    0.0000 C   0  0  0  0  0  0  0  0  0  0  0  0
    2.4292   -4.5000    0.0000 C   0  0  0  0  0  0  0  0  0  0  0  0
    1.6125    0.4958    0.0000 C   0  0  0  0  0  0  0  0  0  0  0  0
   -3.3875    0.0708    0.0000 C   0  0  0  0  0  0  0  0  0  0  0  0
   -2.6708    0.4833    0.0000 C   0  0  0  0  0  0  0  0  0  0  0  0
   -1.9583    0.0750    0.0000 C   0  0  0  0  0  0  0  0  0  0  0  0
   -1.2458    0.4875    0.0000 C   0  0  0  0  0  0  0  0  0  0  0  0
   -0.5333    0.0833    0.0000 C   0  0  0  0  0  0  0  0  0  0  0  0
    0.1792    0.4958    0.0000 C   0  0  0  0  0  0  0  0  0  0  0  0
    0.9000    0.0833    0.0000 C   0  0  0  0  0  0  0  0  0  0  0  0
    5.2750   -1.1917    0.0000 C   0  0  0  0  0  0  0  0  0  0  0  0
   -6.9542   -1.1792    0.0000 C   0  0  0  0  0  0  0  0  0  0  0  0
   -6.9500   -2.0042    0.0000 C   0  0  0  0  0  0  0  0  0  0  0  0
    5.2792   -2.0167    0.0000 C   0  0  0  0  0  0  0  0  0  0  0  0
   -2.6708   -3.6417    0.0000 C   0  0  0  0  0  0  0  0  0  0  0  0
    0.9917   -3.6792    0.0000 C   0  0  0  0  0  0  0  0  0  0  0  0
    1.7167   -4.9167    0.0000 C   0  0  0  0  0  0  0  0  0  0  0  0
   -3.3833   -4.8875    0.0000 C   0  0  0  0  0  0  0  0  0  0  0  0
   -2.6708   -4.4750    0.0000 C   0  0  0  0  0  0  0  0  0  0  0  0
    0.9917   -4.5042    0.0000 C   0  0  0  0  0  0  0  0  0  0  0  0
  2  7  1  0
  3  1  1  0
  4  5  1  0
  5 11  2  0
  6  3  1  0
  7 14  2  0
  8  1  2  0
  9  1  1  0
 10  2  1  0
 11 16  1  0
 12 13  2  0
 13  8  1  0
 14 11  1  0
 15 12  1  0
 16 24  1  0
 17  9  1  0
 18 10  1  0
 19  6  2  0
 20  5  1  0
 21  4  1  0
 22  3  2  0
 23 15  1  0
 24 29  1  0
 25 17  2  0
 26 17  1  0
 27 18  2  0
 28 18  1  0
 29 36  1  0
 30 23  1  0
 31 30  1  0
 32 31  1  0
 33 32  1  0
 34 33  1  0
 35 34  1  0
 36 35  1  0
 37 20  2  0
 38 39  2  0
 39 22  1  0
 40 37  1  0
 41 26  2  0
 42 27  1  0
 43 28  2  0
 44 25  1  0
 45 41  1  0
 46 43  1  0
  6 12  1  0
 38 19  1  0
 45 44  2  0
  4  2  2  0
 40 21  2  0
 46 42  2  0
M  CHG  2   1   1   2   1
M  END

> <chembl_id>
CHEMBL6212

> <chembl_pref_name>
None

$$$$

     RDKit          2D

 48 54  0  0  0  0  0  0  0  0999 V2000
   -4.8125   -2.4125    0.0000 N   0  0  0  0  0  0  0  0  0  0  0  0
    3.1292   -2.4417    0.0000 N   0  0  0  0  0  0  0  0  0  0  0  0
   -5.5333   -2.0000    0.0000 C   0  0  0  0  0  0  0  0  0  0  0  0
    3.8500   -2.0250    0.0000 C   0  0  0  0  0  0  0  0  0  0  0  0
    3.8500   -1.2000    0.0000 C   0  0  0  0  0  0  0  0  0  0  0  0
   -5.5333   -1.1750    0.0000 C   0  0  0  0  0  0  0  0  0  0  0  0
   -4.8125   -0.7542    0.0000 C   0  0  0  0  0  0  0  0  0  0  0  0
    3.1292   -0.7875    0.0000 C   0  0  0  0  0  0  0  0  0  0  0  0
   -4.0958   -2.0000    0.0000 C   0  0  0  0  0  0  0  0  0  0  0  0
    2.4167   -2.0292    0.0000 C   0  0  0  0  0  0  0  0  0  0  0  0
   -4.8125   -3.2375    0.0000 C   0  0  0  0  0  0  0  0  0  0  0  0
    3.1375   -3.2667    0.0000 C   0  0  0  0  0  0  0  0  0  0  0  0
   -4.0958   -1.1667    0.0000 C   0  0  0  0  0  0  0  0  0  0  0  0
    2.4167   -1.2000    0.0000 C   0  0  0  0  0  0  0  0  0  0  0  0
   -4.8208    0.0708    0.0000 N   0  0  0  0  0  0  0  0  0  0  0  0
    3.1542    0.0875    0.0000 N   0  0  0  0  0  0  0  0  0  0  0  0
   -1.2625   -5.2917    0.0000 C   0  0  0  0  0  0  0  0  0  0  0  0
   -0.4125   -5.3250    0.0000 C   0  0  0  0  0  0  0  0  0  0  0  0
   -1.9833   -4.8792    0.0000 C   0  0  0  0  0  0  0  0  0  0  0  0
    0.3042   -4.9125    0.0000 C   0  0  0  0  0  0  0  0  0  0  0  0
   -3.4083   -4.0542    0.0000 C   0  0  0  0  0  0  0  0  0  0  0  0
    1.7292   -4.0792    0.0000 C   0  0  0  0  0  0  0  0  0  0  0  0
    0.3042   -4.0875    0.0000 C   0  0  0  0  0  0  0  0  0  0  0  0
   -2.6958   -5.2917    0.0000 C   0  0  0  0  0  0  0  0  0  0  0  0
    1.0167   -5.3250    0.0000 C   0  0  0  0  0  0  0  0  0  0  0  0
   -1.9833   -4.0542    0.0000 C   0  0  0  0  0  0  0  0  0  0  0  0
   -3.4083   -4.8792    0.0000 C   0  0  0  0  0  0  0  0  0  0  0  0
    1.7292   -4.9125    0.0000 C   0  0  0  0  0  0  0  0  0  0  0  0
   -2.6958   -3.6417    0.0000 C   0  0  0  0  0  0  0  0  0  0  0  0
    1.0167   -3.6667    0.0000 C   0  0  0  0  0  0  0  0  0  0  0  0
   -6.2417   -0.7667    0.0000 C   0  0  0  0  0  0  0  0  0  0  0  0
    4.5542   -0.7792    0.0000 C   0  0  0  0  0  0  0  0  0  0  0  0
    4.5667   -2.4375    0.0000 C   0  0  0  0  0  0  0  0  0  0  0  0
   -6.2292   -2.4167    0.0000 C   0  0  0  0  0  0  0  0  0  0  0  0
   -4.1000    0.4833    0.0000 C   0  0  0  0  0  0  0  0  0  0  0  0
    2.3292    0.0875    0.0000 C   0  0  0  0  0  0  0  0  0  0  0  0
    5.2750   -1.1917    0.0000 C   0  0  0  0  0  0  0  0  0  0  0  0
   -6.9542   -1.1792    0.0000 C   0  0  0  0  0  0  0  0  0  0  0  0
   -6.9500   -2.0042    0.0000 C   0  0  0  0  0  0  0  0  0  0  0  0
    5.2792   -2.0167    0.0000 C   0  0  0  0  0  0  0  0  0  0  0  0
    1.6125    0.4958    0.0000 C   0  0  0  0  0  0  0  0  0  0  0  0
   -3.3875    0.0708    0.0000 C   0  0  0  0  0  0  0  0  0  0  0  0
    0.1792    0.4958    0.0000 C   0  0  0  0  0  0  0  0  0  0  0  0
    0.9000    0.0833    0.0000 C   0  0  0  0  0  0  0  0  0  0  0  0
   -2.6708    0.4833    0.0000 C   0  0  0  0  0  0  0  0  0  0  0  0
   -1.9583    0.0750    0.0000 C   0  0  0  0  0  0  0  0  0  0  0  0
   -1.2458    0.4875    0.0000 C   0  0  0  0  0  0  0  0  0  0  0  0
   -0.5333    0.0833    0.0000 C   0  0  0  0  0  0  0  0  0  0  0  0
  2 12  1  0
  3  1  1  0
  4  2  2  0
  5  4  1  0
  6  3  1  0
  7 13  2  0
  8 14  1  0
  9  1  2  0
 10  2  1  0
 11  1  1  0
 12 22  1  0
 13  9  1  0
 14 10  2  0
 15  7  1  0
 16 36  1  0
 17 19  1  0
 18 17  2  0
 19 26  1  0
 20 18  1  0
 21 11  1  0
 22 28  1  0
 23 20  2  0
 24 27  1  0
 25 20  1  0
 26 29  2  0
 27 21  2  0
 28 25  2  0
 29 21  1  0
 30 23  1  0
 31  6  2  0
 32  5  1  0
 33  4  1  0
 34  3  2  0
 35 15  1  0
 36 41  1  0
 37 40  1  0
 38 39  2  0
 39 34  1  0
 40 33  2  0
 41 44  1  0
 42 35  1  0
 43 48  1  0
 44 43  1  0
 45 42  1  0
 46 45  1  0
 47 46  1  0
 48 47  1  0
  7  6  1  0
 19 24  2  0
 38 31  1  0
 30 22  2  0
  8 16  1  0
  8  5  2  0
 32 37  2  0
M  CHG  2   1   1   2   1
M  END

> <chembl_id>
CHEMBL258254

> <chembl_pref_name>
None

$$$$

     RDKit          2D

 48 54  0  0  0  0  0  0  0  0999 V2000
   -5.1083   -2.2917    0.0000 N   0  0  0  0  0  0  0  0  0  0  0  0
    2.8375   -2.3250    0.0000 N   0  0  0  0  0  0  0  0  0  0  0  0
   -5.8208   -1.8792    0.0000 C   0  0  0  0  0  0  0  0  0  0  0  0
    3.5542   -1.9042    0.0000 C   0  0  0  0  0  0  0  0  0  0  0  0
    3.5542   -1.0792    0.0000 C   0  0  0  0  0  0  0  0  0  0  0  0
   -5.8333   -1.0542    0.0000 C   0  0  0  0  0  0  0  0  0  0  0  0
   -5.1083   -0.6417    0.0000 C   0  0  0  0  0  0  0  0  0  0  0  0
    2.8375   -0.6667    0.0000 C   0  0  0  0  0  0  0  0  0  0  0  0
   -4.3958   -1.8792    0.0000 C   0  0  0  0  0  0  0  0  0  0  0  0
    2.1250   -1.9125    0.0000 C   0  0  0  0  0  0  0  0  0  0  0  0
   -5.1083   -3.1167    0.0000 C   0  0  0  0  0  0  0  0  0  0  0  0
    2.8417   -3.1500    0.0000 C   0  0  0  0  0  0  0  0  0  0  0  0
   -4.3958   -1.0542    0.0000 C   0  0  0  0  0  0  0  0  0  0  0  0
    2.1250   -1.0875    0.0000 C   0  0  0  0  0  0  0  0  0  0  0  0
   -5.1125    0.1833    0.0000 N   0  0  0  0  0  0  0  0  0  0  0  0
    2.8542    0.2083    0.0000 N   0  0  0  0  0  0  0  0  0  0  0  0
   -3.6500   -3.6000    0.0000 C   0  0  0  0  0  0  0  0  0  0  0  0
    1.7167   -4.2542    0.0000 C   0  0  0  0  0  0  0  0  0  0  0  0
    0.0667   -4.2792    0.0000 C   0  0  0  0  0  0  0  0  0  0  0  0
   -2.0000   -3.5875    0.0000 C   0  0  0  0  0  0  0  0  0  0  0  0
   -3.2333   -4.3125    0.0000 C   0  0  0  0  0  0  0  0  0  0  0  0
    1.3042   -4.9792    0.0000 C   0  0  0  0  0  0  0  0  0  0  0  0
   -3.2458   -2.8792    0.0000 C   0  0  0  0  0  0  0  0  0  0  0  0
    1.2917   -3.5500    0.0000 C   0  0  0  0  0  0  0  0  0  0  0  0
   -2.4250   -2.8750    0.0000 C   0  0  0  0  0  0  0  0  0  0  0  0
    0.4792   -4.9917    0.0000 C   0  0  0  0  0  0  0  0  0  0  0  0
   -2.4083   -4.3042    0.0000 C   0  0  0  0  0  0  0  0  0  0  0  0
   -1.1750   -3.5792    0.0000 C   0  0  0  0  0  0  0  0  0  0  0  0
   -0.7583   -4.2875    0.0000 C   0  0  0  0  0  0  0  0  0  0  0  0
    0.4667   -3.5625    0.0000 C   0  0  0  0  0  0  0  0  0  0  0  0
   -6.5292   -0.6500    0.0000 C   0  0  0  0  0  0  0  0  0  0  0  0
    4.2625   -0.6667    0.0000 C   0  0  0  0  0  0  0  0  0  0  0  0
    4.2667   -2.3167    0.0000 C   0  0  0  0  0  0  0  0  0  0  0  0
   -6.5292   -2.3000    0.0000 C   0  0  0  0  0  0  0  0  0  0  0  0
   -4.3958    0.5958    0.0000 C   0  0  0  0  0  0  0  0  0  0  0  0
    2.0292    0.2083    0.0000 C   0  0  0  0  0  0  0  0  0  0  0  0
    4.9792   -1.0750    0.0000 C   0  0  0  0  0  0  0  0  0  0  0  0
   -7.2500   -1.0625    0.0000 C   0  0  0  0  0  0  0  0  0  0  0  0
   -7.2417   -1.8917    0.0000 C   0  0  0  0  0  0  0  0  0  0  0  0
    4.9792   -1.9042    0.0000 C   0  0  0  0  0  0  0  0  0  0  0  0
    1.3167    0.6125    0.0000 C   0  0  0  0  0  0  0  0  0  0  0  0
   -3.6833    0.1875    0.0000 C   0  0  0  0  0  0  0  0  0  0  0  0
   -0.1125    0.6083    0.0000 C   0  0  0  0  0  0  0  0  0  0  0  0
    0.6042    0.2000    0.0000 C   0  0  0  0  0  0  0  0  0  0  0  0
   -2.9708    0.6000    0.0000 C   0  0  0  0  0  0  0  0  0  0  0  0
   -2.2583    0.1958    0.0000 C   0  0  0  0  0  0  0  0  0  0  0  0
   -1.5458    0.6083    0.0000 C   0  0  0  0  0  0  0  0  0  0  0  0
   -0.8250    0.1958    0.0000 C   0  0  0  0  0  0  0  0  0  0  0  0
  2 12  1  0
  3  1  1  0
  4  2  2  0
  5  4  1  0
  6  3  1  0
  7 13  2  0
  8 14  1  0
  9  1  2  0
 10  2  1  0
 11  1  1  0
 12 18  1  0
 13  9  1  0
 14 10  2  0
 15  7  1  0
 16 36  1  0
 17 11  1  0
 18 24  1  0
 19 29  1  0
 20 25  1  0
 21 17  2  0
 22 26  1  0
 23 17  1  0
 24 30  2  0
 25 23  2  0
 26 19  2  0
 27 21  1  0
 28 20  1  0
 29 28  1  0
 30 19  1  0
 31  6  2  0
 32  5  1  0
 33  4  1  0
 34  3  2  0
 35 15  1  0
 36 41  1  0
 37 40  1  0
 38 39  2  0
 39 34  1  0
 40 33  2  0
 41 44  1  0
 42 35  1  0
 43 48  1  0
 44 43  1  0
 45 42  1  0
 46 45  1  0
 47 46  1  0
 48 47  1  0
  7  6  1  0
 20 27  2  0
 38 31  1  0
 18 22  2  0
  8 16  1  0
  8  5  2  0
 32 37  2  0
M  CHG  2   1   1   2   1
M  END

> <chembl_id>
CHEMBL266885

> <chembl_pref_name>
None

$$$$

     RDKit          2D

 47 53  0  0  0  0  0  0  0  0999 V2000
   -4.7375   -2.2292    0.0000 N   0  0  0  0  0  0  0  0  0  0  0  0
    3.2042   -2.2625    0.0000 N   0  0  0  0  0  0  0  0  0  0  0  0
   -5.4583   -1.8167    0.0000 C   0  0  0  0  0  0  0  0  0  0  0  0
    3.9250   -1.8417    0.0000 C   0  0  0  0  0  0  0  0  0  0  0  0
    3.9250   -1.0167    0.0000 C   0  0  0  0  0  0  0  0  0  0  0  0
   -5.4583   -0.9917    0.0000 C   0  0  0  0  0  0  0  0  0  0  0  0
   -4.7375   -0.5792    0.0000 C   0  0  0  0  0  0  0  0  0  0  0  0
    3.2042   -0.6042    0.0000 C   0  0  0  0  0  0  0  0  0  0  0  0
   -4.0208   -1.8167    0.0000 C   0  0  0  0  0  0  0  0  0  0  0  0
    2.4917   -1.8500    0.0000 C   0  0  0  0  0  0  0  0  0  0  0  0
   -4.7375   -3.0542    0.0000 C   0  0  0  0  0  0  0  0  0  0  0  0
    3.2125   -3.0875    0.0000 C   0  0  0  0  0  0  0  0  0  0  0  0
   -4.0208   -0.9917    0.0000 C   0  0  0  0  0  0  0  0  0  0  0  0
    2.4917   -1.0250    0.0000 C   0  0  0  0  0  0  0  0  0  0  0  0
   -4.7458    0.2458    0.0000 N   0  0  0  0  0  0  0  0  0  0  0  0
    3.2292    0.2708    0.0000 N   0  0  0  0  0  0  0  0  0  0  0  0
   -2.7833   -4.2250    0.0000 C   0  0  0  0  0  0  0  0  0  0  0  0
    1.5042   -4.2250    0.0000 C   0  0  0  0  0  0  0  0  0  0  0  0
    0.0792   -5.0500    0.0000 C   0  0  0  0  0  0  0  0  0  0  0  0
   -1.3500   -5.0542    0.0000 C   0  0  0  0  0  0  0  0  0  0  0  0
   -0.6333   -5.4667    0.0000 C   0  0  0  0  0  0  0  0  0  0  0  0
   -2.0708   -3.8125    0.0000 C   0  0  0  0  0  0  0  0  0  0  0  0
    1.5042   -5.0500    0.0000 C   0  0  0  0  0  0  0  0  0  0  0  0
   -2.7833   -5.0542    0.0000 C   0  0  0  0  0  0  0  0  0  0  0  0
    0.7792   -3.8125    0.0000 C   0  0  0  0  0  0  0  0  0  0  0  0
   -1.3500   -4.2250    0.0000 C   0  0  0  0  0  0  0  0  0  0  0  0
   -2.0708   -5.4667    0.0000 C   0  0  0  0  0  0  0  0  0  0  0  0
    0.7917   -5.4625    0.0000 C   0  0  0  0  0  0  0  0  0  0  0  0
    0.0750   -4.2292    0.0000 C   0  0  0  0  0  0  0  0  0  0  0  0
    4.6292   -0.6042    0.0000 C   0  0  0  0  0  0  0  0  0  0  0  0
   -6.1667   -0.5875    0.0000 C   0  0  0  0  0  0  0  0  0  0  0  0
   -6.1542   -2.2375    0.0000 C   0  0  0  0  0  0  0  0  0  0  0  0
    4.6417   -2.2542    0.0000 C   0  0  0  0  0  0  0  0  0  0  0  0
    2.4042    0.2708    0.0000 C   0  0  0  0  0  0  0  0  0  0  0  0
   -4.0333    0.6583    0.0000 C   0  0  0  0  0  0  0  0  0  0  0  0
   -6.8792   -1.0000    0.0000 C   0  0  0  0  0  0  0  0  0  0  0  0
    5.3500   -1.0125    0.0000 C   0  0  0  0  0  0  0  0  0  0  0  0
    5.3542   -1.8417    0.0000 C   0  0  0  0  0  0  0  0  0  0  0  0
   -6.8750   -1.8292    0.0000 C   0  0  0  0  0  0  0  0  0  0  0  0
   -3.3125    0.2500    0.0000 C   0  0  0  0  0  0  0  0  0  0  0  0
    1.6875    0.6750    0.0000 C   0  0  0  0  0  0  0  0  0  0  0  0
   -0.4583    0.2583    0.0000 C   0  0  0  0  0  0  0  0  0  0  0  0
    0.2542    0.6708    0.0000 C   0  0  0  0  0  0  0  0  0  0  0  0
    0.9750    0.2625    0.0000 C   0  0  0  0  0  0  0  0  0  0  0  0
   -2.5958    0.6625    0.0000 C   0  0  0  0  0  0  0  0  0  0  0  0
   -1.8833    0.2583    0.0000 C   0  0  0  0  0  0  0  0  0  0  0  0
   -1.1708    0.6708    0.0000 C   0  0  0  0  0  0  0  0  0  0  0  0
  2 12  1  0
  3  1  1  0
  4  2  2  0
  5  4  1  0
  6  3  1  0
  7 13  2  0
  8 14  1  0
  9  1  2  0
 10  2  1  0
 11  1  1  0
 12 18  1  0
 13  9  1  0
 14 10  2  0
 15  7  1  0
 16 34  1  0
 17 11  1  0
 18 25  1  0
 19 21  1  0
 20 27  2  0
 21 20  1  0
 22 17  1  0
 23 28  1  0
 24 17  2  0
 25 29  2  0
 26 22  2  0
 27 24  1  0
 28 19  2  0
 29 19  1  0
 30  5  1  0
 31  6  2  0
 32  3  2  0
 33  4  1  0
 34 41  1  0
 35 15  1  0
 36 39  2  0
 37 38  1  0
 38 33  2  0
 39 32  1  0
 40 35  1  0
 41 44  1  0
 42 47  1  0
 43 42  1  0
 44 43  1  0
 45 40  1  0
 46 45  1  0
 47 46  1  0
  6  7  1  0
 20 26  1  0
 36 31  1  0
 18 23  2  0
  8  5  2  0
 16  8  1  0
 30 37  2  0
M  CHG  2   1   1   2   1
M  END

> <chembl_id>
CHEMBL446445

> <chembl_pref_name>
UCL-1530

$$$$

     RDKit          2D

 37 43  0  0  0  0  0  0  0  0999 V2000
   -2.5583   -1.6417    0.0000 N   0  0  0  0  0  0  0  0  0  0  0  0
    3.1167   -1.7500    0.0000 N   0  0  0  0  0  0  0  0  0  0  0  0
   -0.3958   -2.2417    0.0000 C   0  0  0  0  0  0  0  0  0  0  0  0
    0.9542   -2.2667    0.0000 C   0  0  0  0  0  0  0  0  0  0  0  0
   -0.1500   -3.0375    0.0000 C   0  0  0  0  0  0  0  0  0  0  0  0
    0.6792   -3.0542    0.0000 C   0  0  0  0  0  0  0  0  0  0  0  0
   -3.2750   -1.2292    0.0000 C   0  0  0  0  0  0  0  0  0  0  0  0
    3.8292   -1.3292    0.0000 C   0  0  0  0  0  0  0  0  0  0  0  0
    3.8292   -0.5042    0.0000 C   0  0  0  0  0  0  0  0  0  0  0  0
   -3.2750   -0.4042    0.0000 C   0  0  0  0  0  0  0  0  0  0  0  0
    0.2917   -1.7667    0.0000 C   0  0  0  0  0  0  0  0  0  0  0  0
    3.1167   -2.5750    0.0000 C   0  0  0  0  0  0  0  0  0  0  0  0
   -2.5583   -2.4667    0.0000 C   0  0  0  0  0  0  0  0  0  0  0  0
    2.4042   -1.3375    0.0000 C   0  0  0  0  0  0  0  0  0  0  0  0
   -1.8458   -1.2292    0.0000 C   0  0  0  0  0  0  0  0  0  0  0  0
   -0.7208   -3.6375    0.0000 C   0  0  0  0  0  0  0  0  0  0  0  0
    1.2250   -3.6792    0.0000 C   0  0  0  0  0  0  0  0  0  0  0  0
   -2.5625    0.0125    0.0000 C   0  0  0  0  0  0  0  0  0  0  0  0
    3.1167   -0.0917    0.0000 C   0  0  0  0  0  0  0  0  0  0  0  0
   -1.1958   -2.0542    0.0000 C   0  0  0  0  0  0  0  0  0  0  0  0
    1.7667   -2.1042    0.0000 C   0  0  0  0  0  0  0  0  0  0  0  0
    2.4042   -0.5125    0.0000 C   0  0  0  0  0  0  0  0  0  0  0  0
   -1.8458   -0.4000    0.0000 C   0  0  0  0  0  0  0  0  0  0  0  0
    2.3125   -2.7292    0.0000 C   0  0  0  0  0  0  0  0  0  0  0  0
   -1.7583   -2.6542    0.0000 C   0  0  0  0  0  0  0  0  0  0  0  0
   -1.5208   -3.4500    0.0000 C   0  0  0  0  0  0  0  0  0  0  0  0
    2.0417   -3.5250    0.0000 C   0  0  0  0  0  0  0  0  0  0  0  0
    3.1375    0.7833    0.0000 N   0  0  0  0  0  0  0  0  0  0  0  0
   -2.5625    0.8375    0.0000 N   0  0  0  0  0  0  0  0  0  0  0  0
    4.5417   -0.0917    0.0000 C   0  0  0  0  0  0  0  0  0  0  0  0
   -3.9958    0.0083    0.0000 C   0  0  0  0  0  0  0  0  0  0  0  0
   -3.9833   -1.6417    0.0000 C   0  0  0  0  0  0  0  0  0  0  0  0
    4.5500   -1.7417    0.0000 C   0  0  0  0  0  0  0  0  0  0  0  0
   -4.7083   -0.4042    0.0000 C   0  0  0  0  0  0  0  0  0  0  0  0
    5.2542   -0.5000    0.0000 C   0  0  0  0  0  0  0  0  0  0  0  0
    5.2625   -1.3292    0.0000 C   0  0  0  0  0  0  0  0  0  0  0  0
   -4.7083   -1.2375    0.0000 C   0  0  0  0  0  0  0  0  0  0  0  0
  2 12  1  0
  3 20  2  0
  4 11  1  0
  5 16  2  0
  6  5  1  0
  7  1  1  0
  8  2  2  0
  9  8  1  0
 10  7  1  0
 11  3  1  0
 12 24  1  0
 13  1  1  0
 14  2  1  0
 15  1  2  0
 16 26  1  0
 17  6  1  0
 18 23  2  0
 19 22  1  0
 20 25  1  0
 21  4  1  0
 22 14  2  0
 23 15  1  0
 24 21  2  0
 25 13  1  0
 26 25  2  0
 27 17  2  0
 28 19  1  0
 29 18  1  0
 30  9  1  0
 31 10  2  0
 32  7  2  0
 33  8  1  0
 34 37  2  0
 35 36  1  0
 36 33  2  0
 37 32  1  0
 18 10  1  0
 34 31  1  0
  5  3  1  0
  6  4  2  0
 24 27  1  0
 19  9  2  0
 35 30  2  0
M  CHG  2   1   1   2   1
M  END

> <chembl_id>
CHEMBL6356

> <chembl_pref_name>
None

$$$$

     RDKit          2D

 36 41  0  0  0  0  0  0  0  0999 V2000
   -1.7833   -0.8542    0.0000 N   0  0  0  0  0  0  0  0  0  0  0  0
    3.8792   -0.8375    0.0000 N   0  0  0  0  0  0  0  0  0  0  0  0
    4.5792   -0.4042    0.0000 C   0  0  0  0  0  0  0  0  0  0  0  0
   -2.5375   -0.5292    0.0000 C   0  0  0  0  0  0  0  0  0  0  0  0
   -2.6333    0.2958    0.0000 C   0  0  0  0  0  0  0  0  0  0  0  0
    4.5625    0.4208    0.0000 C   0  0  0  0  0  0  0  0  0  0  0  0
    3.9000   -1.6625    0.0000 C   0  0  0  0  0  0  0  0  0  0  0  0
   -1.6833   -1.6750    0.0000 C   0  0  0  0  0  0  0  0  0  0  0  0
   -1.1208   -0.3625    0.0000 C   0  0  0  0  0  0  0  0  0  0  0  0
    3.1542   -0.4417    0.0000 C   0  0  0  0  0  0  0  0  0  0  0  0
   -1.9750    0.7833    0.0000 C   0  0  0  0  0  0  0  0  0  0  0  0
    3.8417    0.8208    0.0000 C   0  0  0  0  0  0  0  0  0  0  0  0
    3.1375    0.3958    0.0000 C   0  0  0  0  0  0  0  0  0  0  0  0
   -1.2208    0.4625    0.0000 C   0  0  0  0  0  0  0  0  0  0  0  0
    1.5417   -2.0542    0.0000 C   0  0  0  0  0  0  0  0  0  0  0  0
    0.7250   -2.0375    0.0000 C   0  0  0  0  0  0  0  0  0  0  0  0
    1.9667   -1.3500    0.0000 C   0  0  0  0  0  0  0  0  0  0  0  0
    0.3292   -1.3167    0.0000 C   0  0  0  0  0  0  0  0  0  0  0  0
    0.2917   -2.7417    0.0000 C   0  0  0  0  0  0  0  0  0  0  0  0
    1.9417   -2.7792    0.0000 C   0  0  0  0  0  0  0  0  0  0  0  0
   -0.9250   -2.0000    0.0000 C   0  0  0  0  0  0  0  0  0  0  0  0
    3.1917   -2.0875    0.0000 C   0  0  0  0  0  0  0  0  0  0  0  0
   -2.0833    1.6083    0.0000 N   0  0  0  0  0  0  0  0  0  0  0  0
    3.8167    1.6458    0.0000 N   0  0  0  0  0  0  0  0  0  0  0  0
    2.7917   -1.3625    0.0000 C   0  0  0  0  0  0  0  0  0  0  0  0
    2.7667   -2.7917    0.0000 C   0  0  0  0  0  0  0  0  0  0  0  0
   -0.5333   -2.7250    0.0000 C   0  0  0  0  0  0  0  0  0  0  0  0
   -0.4958   -1.3000    0.0000 C   0  0  0  0  0  0  0  0  0  0  0  0
   -3.3958    0.6125    0.0000 C   0  0  0  0  0  0  0  0  0  0  0  0
    5.2667    0.8458    0.0000 C   0  0  0  0  0  0  0  0  0  0  0  0
    5.3042   -0.8042    0.0000 C   0  0  0  0  0  0  0  0  0  0  0  0
   -3.2000   -1.0292    0.0000 C   0  0  0  0  0  0  0  0  0  0  0  0
   -4.0500    0.1208    0.0000 C   0  0  0  0  0  0  0  0  0  0  0  0
    5.9917    0.4583    0.0000 C   0  0  0  0  0  0  0  0  0  0  0  0
   -3.9583   -0.7000    0.0000 C   0  0  0  0  0  0  0  0  0  0  0  0
    6.0125   -0.3750    0.0000 C   0  0  0  0  0  0  0  0  0  0  0  0
  2  7  1  0
  3  2  1  0
  4  1  1  0
  5  4  1  0
  6  3  1  0
  7 22  1  0
  8  1  1  0
  9  1  2  0
 10  2  2  0
 11 14  2  0
 12 13  2  0
 13 10  1  0
 14  9  1  0
 15 16  1  0
 16 18  2  0
 17 15  1  0
 18 28  1  0
 19 27  2  0
 20 15  2  0
 21  8  1  0
 22 25  1  0
 23 11  1  0
 24 12  1  0
 25 17  2  0
 26 20  1  0
 27 21  1  0
 28 21  2  0
 29  5  2  0
 30  6  2  0
 31  3  2  0
 32  4  2  0
 33 35  2  0
 34 36  2  0
 35 32  1  0
 36 31  1  0
 11  5  1  0
 16 19  1  0
 33 29  1  0
 26 22  2  0
  6 12  1  0
 34 30  1  0
M  CHG  2   1   1   2   1
M  END

> <chembl_id>
CHEMBL269729

> <chembl_pref_name>
None

$$$$

     RDKit          2D

 25 27  0  0  0  0  0  0  0  0999 V2000
    5.2792   -2.0500    0.0000 C   0  0  0  0  0  0  0  0  0  0  0  0
    5.7917   -2.3500    0.0000 N   0  0  0  0  0  0  0  0  0  0  0  0
    5.2792   -1.4500    0.0000 N   0  0  0  0  0  0  0  0  0  0  0  0
    6.3125   -2.0500    0.0000 N   0  0  0  0  0  0  0  0  0  0  0  0
    5.7875   -4.7417    0.0000 C   0  0  0  0  0  0  0  0  0  0  0  0
    6.3042   -5.0417    0.0000 C   0  0  0  0  0  0  0  0  0  0  0  0
    5.7875   -4.1417    0.0000 C   0  0  0  0  0  0  0  0  0  0  0  0
    6.3125   -1.4500    0.0000 C   0  0  0  0  0  0  0  0  0  0  0  0
    5.7917   -1.1500    0.0000 C   0  0  0  0  0  0  0  0  0  0  0  0
    5.7917   -2.9500    0.0000 C   0  0  0  0  0  0  0  0  0  0  0  0
    6.3042   -5.6417    0.0000 C   0  0  0  0  0  0  0  0  0  0  0  0
    5.2667   -3.8417    0.0000 C   0  0  0  0  0  0  0  0  0  0  0  0
    5.2667   -3.2417    0.0000 C   0  0  0  0  0  0  0  0  0  0  0  0
    6.8167   -4.7417    0.0000 C   0  0  0  0  0  0  0  0  0  0  0  0
    6.3042   -3.8417    0.0000 C   0  0  0  0  0  0  0  0  0  0  0  0
    6.8250   -5.9417    0.0000 C   0  0  0  0  0  0  0  0  0  0  0  0
    4.7542   -2.3417    0.0000 O   0  0  0  0  0  0  0  0  0  0  0  0
    5.2667   -5.0417    0.0000 O   0  0  0  0  0  0  0  0  0  0  0  0
    6.3042   -3.2417    0.0000 C   0  0  0  0  0  0  0  0  0  0  0  0
    5.7917   -0.5500    0.0000 O   0  0  0  0  0  0  0  0  0  0  0  0
    7.3417   -5.6417    0.0000 C   0  0  0  0  0  0  0  0  0  0  0  0
    5.7792   -5.9417    0.0000 Cl  0  0  0  0  0  0  0  0  0  0  0  0
    7.3417   -5.0417    0.0000 C   0  0  0  0  0  0  0  0  0  0  0  0
    7.8625   -5.9417    0.0000 Cl  0  0  0  0  0  0  0  0  0  0  0  0
    4.7417   -4.1417    0.0000 C   0  0  0  0  0  0  0  0  0  0  0  0
  2  1  1  0
  3  1  1  0
  4  2  1  0
  5  7  1  0
  6  5  1  0
  7 15  1  0
  8  9  1  0
  9  3  1  0
 10  2  1  0
 11  6  2  0
 12 13  1  0
 13 10  2  0
 14  6  1  0
 15 19  2  0
 16 11  1  0
 17  1  2  0
 18  5  2  0
 19 10  1  0
 20  9  2  0
 21 23  1  0
 22 11  1  0
 23 14  2  0
 24 21  1  0
 25 12  1  0
  4  8  2  0
 12  7  2  0
 16 21  2  0
M  END

> <chembl_id>
CHEMBL6344

> <chembl_pref_name>
None

$$$$

     RDKit          2D

 47 54  0  0  0  0  0  0  0  0999 V2000
   -4.7375   -2.2292    0.0000 N   0  0  0  0  0  0  0  0  0  0  0  0
    3.2042   -2.2625    0.0000 N   0  0  0  0  0  0  0  0  0  0  0  0
   -1.4208   -3.6792    0.0000 C   0  0  0  0  0  0  0  0  0  0  0  0
   -0.0708   -3.7042    0.0000 C   0  0  0  0  0  0  0  0  0  0  0  0
   -1.1833   -4.4750    0.0000 C   0  0  0  0  0  0  0  0  0  0  0  0
   -0.3500   -4.4917    0.0000 C   0  0  0  0  0  0  0  0  0  0  0  0
   -5.4583   -1.8167    0.0000 C   0  0  0  0  0  0  0  0  0  0  0  0
    3.9250   -1.8417    0.0000 C   0  0  0  0  0  0  0  0  0  0  0  0
    3.9250   -1.0167    0.0000 C   0  0  0  0  0  0  0  0  0  0  0  0
   -5.4583   -0.9917    0.0000 C   0  0  0  0  0  0  0  0  0  0  0  0
   -0.7375   -3.2042    0.0000 C   0  0  0  0  0  0  0  0  0  0  0  0
    3.2125   -3.0875    0.0000 C   0  0  0  0  0  0  0  0  0  0  0  0
   -4.7375   -3.0542    0.0000 C   0  0  0  0  0  0  0  0  0  0  0  0
   -4.7375   -0.5792    0.0000 C   0  0  0  0  0  0  0  0  0  0  0  0
    3.2042   -0.6042    0.0000 C   0  0  0  0  0  0  0  0  0  0  0  0
   -4.0208   -1.8167    0.0000 C   0  0  0  0  0  0  0  0  0  0  0  0
    2.4917   -1.8500    0.0000 C   0  0  0  0  0  0  0  0  0  0  0  0
   -1.7458   -5.0750    0.0000 C   0  0  0  0  0  0  0  0  0  0  0  0
    0.1917   -5.1167    0.0000 C   0  0  0  0  0  0  0  0  0  0  0  0
   -2.2208   -3.4917    0.0000 C   0  0  0  0  0  0  0  0  0  0  0  0
    0.7417   -3.5500    0.0000 C   0  0  0  0  0  0  0  0  0  0  0  0
    2.4917   -1.0250    0.0000 C   0  0  0  0  0  0  0  0  0  0  0  0
   -4.0208   -0.9917    0.0000 C   0  0  0  0  0  0  0  0  0  0  0  0
    3.2292    0.2708    0.0000 N   0  0  0  0  0  0  0  0  0  0  0  0
   -4.7458    0.2458    0.0000 N   0  0  0  0  0  0  0  0  0  0  0  0
    1.2792   -4.1750    0.0000 C   0  0  0  0  0  0  0  0  0  0  0  0
   -2.7875   -4.0875    0.0000 C   0  0  0  0  0  0  0  0  0  0  0  0
   -2.5500   -4.8792    0.0000 C   0  0  0  0  0  0  0  0  0  0  0  0
    1.0125   -4.9667    0.0000 C   0  0  0  0  0  0  0  0  0  0  0  0
    4.6292   -0.6042    0.0000 C   0  0  0  0  0  0  0  0  0  0  0  0
   -6.1667   -0.5875    0.0000 C   0  0  0  0  0  0  0  0  0  0  0  0
   -6.1542   -2.2375    0.0000 C   0  0  0  0  0  0  0  0  0  0  0  0
    4.6417   -2.2542    0.0000 C   0  0  0  0  0  0  0  0  0  0  0  0
    2.4042    0.2708    0.0000 C   0  0  0  0  0  0  0  0  0  0  0  0
   -4.0333    0.6583    0.0000 C   0  0  0  0  0  0  0  0  0  0  0  0
   -6.8792   -1.0000    0.0000 C   0  0  0  0  0  0  0  0  0  0  0  0
    5.3500   -1.0125    0.0000 C   0  0  0  0  0  0  0  0  0  0  0  0
    5.3542   -1.8417    0.0000 C   0  0  0  0  0  0  0  0  0  0  0  0
   -6.8750   -1.8292    0.0000 C   0  0  0  0  0  0  0  0  0  0  0  0
   -3.3125    0.2500    0.0000 C   0  0  0  0  0  0  0  0  0  0  0  0
    1.6875    0.6750    0.0000 C   0  0  0  0  0  0  0  0  0  0  0  0
   -0.4583    0.2583    0.0000 C   0  0  0  0  0  0  0  0  0  0  0  0
    0.2542    0.6708    0.0000 C   0  0  0  0  0  0  0  0  0  0  0  0
    0.9750    0.2625    0.0000 C   0  0  0  0  0  0  0  0  0  0  0  0
   -2.5958    0.6625    0.0000 C   0  0  0  0  0  0  0  0  0  0  0  0
   -1.8833    0.2583    0.0000 C   0  0  0  0  0  0  0  0  0  0  0  0
   -1.1708    0.6708    0.0000 C   0  0  0  0  0  0  0  0  0  0  0  0
  2 12  1  0
  3 20  2  0
  4 11  1  0
  5 18  2  0
  6  5  1  0
  7  1  1  0
  8  2  2  0
  9  8  1  0
 10  7  1  0
 11  3  1  0
 12 26  1  0
 13  1  1  0
 14 23  2  0
 15 22  1  0
 16  1  2  0
 17  2  1  0
 18 28  1  0
 19  6  1  0
 20 27  1  0
 21  4  1  0
 22 17  2  0
 23 16  1  0
 24 15  1  0
 25 14  1  0
 26 21  2  0
 27 13  1  0
 28 27  2  0
 29 19  2  0
 30  9  1  0
 31 10  2  0
 32  7  2  0
 33  8  1  0
 34 41  1  0
 35 25  1  0
 36 39  2  0
 37 38  1  0
 38 33  2  0
 39 32  1  0
 40 35  1  0
 41 44  1  0
 42 47  1  0
 43 42  1  0
 44 43  1  0
 45 40  1  0
 46 45  1  0
 47 46  1  0
 10 14  1  0
 36 31  1  0
  5  3  1  0
  6  4  2  0
 26 29  1  0
 15  9  2  0
 24 34  1  0
 30 37  2  0
M  CHG  2   1   1   2   1
M  END

> <chembl_id>
CHEMBL6207

> <chembl_pref_name>
None

$$$$

     RDKit          2D

 37 42  0  0  0  0  0  0  0  0999 V2000
   -2.5583   -1.6417    0.0000 N   0  0  0  0  0  0  0  0  0  0  0  0
    3.1167   -1.7500    0.0000 N   0  0  0  0  0  0  0  0  0  0  0  0
   -3.2750   -1.2292    0.0000 C   0  0  0  0  0  0  0  0  0  0  0  0
    3.8292   -1.3292    0.0000 C   0  0  0  0  0  0  0  0  0  0  0  0
    3.8292   -0.5042    0.0000 C   0  0  0  0  0  0  0  0  0  0  0  0
   -3.2750   -0.4042    0.0000 C   0  0  0  0  0  0  0  0  0  0  0  0
   -2.5583   -2.4667    0.0000 C   0  0  0  0  0  0  0  0  0  0  0  0
    3.1167   -2.5750    0.0000 C   0  0  0  0  0  0  0  0  0  0  0  0
   -1.8458   -1.2292    0.0000 C   0  0  0  0  0  0  0  0  0  0  0  0
    2.4042   -1.3375    0.0000 C   0  0  0  0  0  0  0  0  0  0  0  0
    3.1167   -0.0917    0.0000 C   0  0  0  0  0  0  0  0  0  0  0  0
   -2.5625    0.0125    0.0000 C   0  0  0  0  0  0  0  0  0  0  0  0
   -1.8458   -0.4000    0.0000 C   0  0  0  0  0  0  0  0  0  0  0  0
    2.4042   -0.5125    0.0000 C   0  0  0  0  0  0  0  0  0  0  0  0
   -1.8458   -2.8792    0.0000 C   0  0  0  0  0  0  0  0  0  0  0  0
    2.4375   -2.9792    0.0000 C   0  0  0  0  0  0  0  0  0  0  0  0
   -2.5625    0.8375    0.0000 N   0  0  0  0  0  0  0  0  0  0  0  0
    3.1375    0.7833    0.0000 N   0  0  0  0  0  0  0  0  0  0  0  0
    0.9917   -3.7750    0.0000 C   0  0  0  0  0  0  0  0  0  0  0  0
   -0.4375   -3.7417    0.0000 C   0  0  0  0  0  0  0  0  0  0  0  0
    0.2667   -4.1667    0.0000 C   0  0  0  0  0  0  0  0  0  0  0  0
   -1.1250   -2.4792    0.0000 C   0  0  0  0  0  0  0  0  0  0  0  0
    2.4167   -3.8042    0.0000 C   0  0  0  0  0  0  0  0  0  0  0  0
   -1.8708   -3.7042    0.0000 C   0  0  0  0  0  0  0  0  0  0  0  0
    1.7250   -2.5542    0.0000 C   0  0  0  0  0  0  0  0  0  0  0  0
   -0.4208   -2.9125    0.0000 C   0  0  0  0  0  0  0  0  0  0  0  0
   -1.1625   -4.1292    0.0000 C   0  0  0  0  0  0  0  0  0  0  0  0
    1.6917   -4.2042    0.0000 C   0  0  0  0  0  0  0  0  0  0  0  0
    1.0042   -2.9500    0.0000 C   0  0  0  0  0  0  0  0  0  0  0  0
   -3.9958    0.0083    0.0000 C   0  0  0  0  0  0  0  0  0  0  0  0
    4.5417   -0.0917    0.0000 C   0  0  0  0  0  0  0  0  0  0  0  0
    4.5500   -1.7417    0.0000 C   0  0  0  0  0  0  0  0  0  0  0  0
   -3.9833   -1.6417    0.0000 C   0  0  0  0  0  0  0  0  0  0  0  0
    5.2542   -0.5000    0.0000 C   0  0  0  0  0  0  0  0  0  0  0  0
   -4.7083   -0.4042    0.0000 C   0  0  0  0  0  0  0  0  0  0  0  0
   -4.7083   -1.2375    0.0000 C   0  0  0  0  0  0  0  0  0  0  0  0
    5.2625   -1.3292    0.0000 C   0  0  0  0  0  0  0  0  0  0  0  0
  2  8  1  0
  3  1  1  0
  4  2  2  0
  5  4  1  0
  6  3  1  0
  7  1  1  0
  8 16  1  0
  9  1  2  0
 10  2  1  0
 11 14  1  0
 12 13  2  0
 13  9  1  0
 14 10  2  0
 15  7  1  0
 16 25  1  0
 17 12  1  0
 18 11  1  0
 19 21  1  0
 20 27  2  0
 21 20  1  0
 22 15  1  0
 23 28  1  0
 24 15  2  0
 25 29  2  0
 26 22  2  0
 27 24  1  0
 28 19  2  0
 29 19  1  0
 30  6  2  0
 31  5  1  0
 32  4  1  0
 33  3  2  0
 34 37  1  0
 35 36  2  0
 36 33  1  0
 37 32  2  0
  6 12  1  0
 26 20  1  0
 35 30  1  0
 16 23  2  0
 11  5  2  0
 31 34  2  0
M  CHG  2   1   1   2   1
M  END

> <chembl_id>
CHEMBL6315

> <chembl_pref_name>
None

$$$$

     RDKit          2D

 42 45  0  0  0  0  0  0  0  0999 V2000
    1.9667   -1.4250    0.0000 C   0  0  0  0  0  0  0  0  0  0  0  0
    1.9750   -2.2542    0.0000 N   0  0  0  0  0  0  0  0  0  0  0  0
    0.5417   -2.2542    0.0000 C   0  0  0  0  0  0  0  0  0  0  0  0
    1.2625   -2.6667    0.0000 C   0  0  0  0  0  0  0  0  0  0  0  0
    1.2542   -1.0167    0.0000 N   0  0  0  0  0  0  0  0  0  0  0  0
    0.5417   -1.4292    0.0000 C   0  0  0  0  0  0  0  0  0  0  0  0
    2.6792   -1.0125    0.0000 N   0  0  0  0  0  0  0  0  0  0  0  0
    4.1042   -0.1792    0.0000 N   0  0  0  0  0  0  0  0  0  0  0  0
   -0.1708   -2.6750    0.0000 C   0  0  0  0  0  0  0  0  0  0  0  0
   -0.1708   -1.0167    0.0000 C   0  0  0  0  0  0  0  0  0  0  0  0
    4.8250    0.2333    0.0000 C   0  0  0  0  0  0  0  0  0  0  0  0
   -0.8833   -2.2625    0.0000 C   0  0  0  0  0  0  0  0  0  0  0  0
   -0.8833   -1.4375    0.0000 C   0  0  0  0  0  0  0  0  0  0  0  0
   11.2542   -0.9875    0.0000 C   0  0  0  0  0  0  0  0  0  0  0  0
   11.9667   -1.3917    0.0000 C   0  0  0  0  0  0  0  0  0  0  0  0
   11.9750   -2.2167    0.0000 C   0  0  0  0  0  0  0  0  0  0  0  0
   12.6917   -2.6292    0.0000 C   0  0  0  0  0  0  0  0  0  0  0  0
   10.5417   -1.4000    0.0000 N   0  0  0  0  0  0  0  0  0  0  0  0
    3.4000   -1.4167    0.0000 C   0  0  0  0  0  0  0  0  0  0  0  0
    2.6792   -0.1875    0.0000 C   0  0  0  0  0  0  0  0  0  0  0  0
    3.3917    0.2333    0.0000 C   0  0  0  0  0  0  0  0  0  0  0  0
    4.1125   -1.0042    0.0000 C   0  0  0  0  0  0  0  0  0  0  0  0
    4.8167    1.0583    0.0000 O   0  0  0  0  0  0  0  0  0  0  0  0
   11.2500   -0.1542    0.0000 O   0  0  0  0  0  0  0  0  0  0  0  0
   12.6917   -3.4542    0.0000 O   0  0  0  0  0  0  0  0  0  0  0  0
    1.2542   -3.4917    0.0000 N   0  0  0  0  0  0  0  0  0  0  0  0
    9.8250   -0.9917    0.0000 C   0  0  0  0  0  0  0  0  0  0  0  0
   -1.6000   -2.6750    0.0000 O   0  0  0  0  0  0  0  0  0  0  0  0
   -1.5958   -1.0250    0.0000 O   0  0  0  0  0  0  0  0  0  0  0  0
   13.4042   -2.2167    0.0000 O   0  0  0  0  0  0  0  0  0  0  0  0
    8.3917   -0.1667    0.0000 C   0  0  0  0  0  0  0  0  0  0  0  0
    9.1125   -1.4042    0.0000 C   0  0  0  0  0  0  0  0  0  0  0  0
    9.8167   -0.1542    0.0000 C   0  0  0  0  0  0  0  0  0  0  0  0
    8.3917   -0.9917    0.0000 C   0  0  0  0  0  0  0  0  0  0  0  0
    9.1042    0.2458    0.0000 C   0  0  0  0  0  0  0  0  0  0  0  0
    5.5375   -0.1792    0.0000 C   0  0  0  0  0  0  0  0  0  0  0  0
    7.6792    0.2375    0.0000 C   0  0  0  0  0  0  0  0  0  0  0  0
   -2.3125   -1.4375    0.0000 C   0  0  0  0  0  0  0  0  0  0  0  0
   -2.3125   -2.2625    0.0000 C   0  0  0  0  0  0  0  0  0  0  0  0
   14.1167   -2.6250    0.0000 C   0  0  0  0  0  0  0  0  0  0  0  0
    6.2542    0.2333    0.0000 C   0  0  0  0  0  0  0  0  0  0  0  0
    6.9667   -0.1750    0.0000 C   0  0  0  0  0  0  0  0  0  0  0  0
  2  1  1  0
  3  6  1  0
  4  2  2  0
  5  1  2  0
  6  5  1  0
  7  1  1  0
  8 21  1  0
  9  3  2  0
 10  6  2  0
 11  8  1  0
 12 13  2  0
 13 10  1  0
 14 18  1  0
 15 14  1  0
 16 15  2  0
 17 16  1  0
 18 27  1  0
 19  7  1  0
 20  7  1  0
 21 20  1  0
 22 19  1  0
 23 11  2  0
 24 14  2  0
 25 17  2  0
 26  4  1  0
 27 33  1  0
 28 12  1  0
 29 13  1  0
 30 17  1  0
 31 37  1  0
 32 34  1  0
 33 35  2  0
 34 31  2  0
 35 31  1  0
 36 11  1  0
 37 42  1  0
 38 29  1  0
 39 28  1  0
 40 30  1  0
 41 36  1  0
 42 41  1  0
  3  4  1  0
 22  8  1  0
 12  9  1  0
 32 27  2  0
M  END

> <chembl_id>
CHEMBL266223

> <chembl_pref_name>
None

$$$$

     RDKit          2D

 31 34  0  0  0  0  0  0  0  0999 V2000
    1.9667   -1.4250    0.0000 C   0  0  0  0  0  0  0  0  0  0  0  0
    1.9750   -2.2542    0.0000 N   0  0  0  0  0  0  0  0  0  0  0  0
    0.5417   -2.2542    0.0000 C   0  0  0  0  0  0  0  0  0  0  0  0
    1.2625   -2.6667    0.0000 C   0  0  0  0  0  0  0  0  0  0  0  0
    1.2542   -1.0167    0.0000 N   0  0  0  0  0  0  0  0  0  0  0  0
    0.5417   -1.4292    0.0000 C   0  0  0  0  0  0  0  0  0  0  0  0
    2.6792   -1.0125    0.0000 N   0  0  0  0  0  0  0  0  0  0  0  0
    4.1042   -0.1792    0.0000 N   0  0  0  0  0  0  0  0  0  0  0  0
   -0.1708   -2.6750    0.0000 C   0  0  0  0  0  0  0  0  0  0  0  0
   -0.1708   -1.0167    0.0000 C   0  0  0  0  0  0  0  0  0  0  0  0
    4.8250    0.2333    0.0000 C   0  0  0  0  0  0  0  0  0  0  0  0
   -0.8833   -2.2625    0.0000 C   0  0  0  0  0  0  0  0  0  0  0  0
   -0.8833   -1.4375    0.0000 C   0  0  0  0  0  0  0  0  0  0  0  0
    2.6792   -0.1875    0.0000 C   0  0  0  0  0  0  0  0  0  0  0  0
    3.4000   -1.4167    0.0000 C   0  0  0  0  0  0  0  0  0  0  0  0
    4.1125   -1.0042    0.0000 C   0  0  0  0  0  0  0  0  0  0  0  0
    3.3917    0.2333    0.0000 C   0  0  0  0  0  0  0  0  0  0  0  0
    4.8167    1.0583    0.0000 O   0  0  0  0  0  0  0  0  0  0  0  0
    5.5375   -0.1792    0.0000 C   0  0  0  0  0  0  0  0  0  0  0  0
    1.2542   -3.4917    0.0000 N   0  0  0  0  0  0  0  0  0  0  0  0
    5.5417   -1.0042    0.0000 C   0  0  0  0  0  0  0  0  0  0  0  0
   -1.6000   -2.6750    0.0000 O   0  0  0  0  0  0  0  0  0  0  0  0
   -1.5958   -1.0250    0.0000 O   0  0  0  0  0  0  0  0  0  0  0  0
    6.2542   -1.4167    0.0000 C   0  0  0  0  0  0  0  0  0  0  0  0
   -2.3125   -2.2625    0.0000 C   0  0  0  0  0  0  0  0  0  0  0  0
   -2.3125   -1.4375    0.0000 C   0  0  0  0  0  0  0  0  0  0  0  0
    6.2542   -2.2417    0.0000 C   0  0  0  0  0  0  0  0  0  0  0  0
    6.9667   -1.0000    0.0000 C   0  0  0  0  0  0  0  0  0  0  0  0
    7.6792   -1.4042    0.0000 C   0  0  0  0  0  0  0  0  0  0  0  0
    6.9667   -2.6500    0.0000 C   0  0  0  0  0  0  0  0  0  0  0  0
    7.6792   -2.2375    0.0000 C   0  0  0  0  0  0  0  0  0  0  0  0
  2  1  1  0
  3  6  1  0
  4  2  2  0
  5  1  2  0
  6  5  1  0
  7  1  1  0
  8 16  1  0
  9  3  2  0
 10  6  2  0
 11  8  1  0
 12 13  2  0
 13 10  1  0
 14  7  1  0
 15  7  1  0
 16 15  1  0
 17 14  1  0
 18 11  2  0
 19 11  1  0
 20  4  1  0
 21 19  1  0
 22 12  1  0
 23 13  1  0
 24 21  1  0
 25 22  1  0
 26 23  1  0
 27 24  2  0
 28 24  1  0
 29 28  2  0
 30 27  1  0
 31 29  1  0
  3  4  1  0
 17  8  1  0
  9 12  1  0
 30 31  2  0
M  END

> <chembl_id>
CHEMBL263077

> <chembl_pref_name>
None

$$$$

     RDKit          2D

 33 36  0  0  0  0  0  0  0  0999 V2000
    5.0042   -1.9542    0.0000 C   0  0  0  0  0  0  0  0  0  0  0  0
    5.0042   -2.7875    0.0000 N   0  0  0  0  0  0  0  0  0  0  0  0
    3.5792   -2.7917    0.0000 C   0  0  0  0  0  0  0  0  0  0  0  0
    4.2917   -3.2042    0.0000 C   0  0  0  0  0  0  0  0  0  0  0  0
    4.2875   -1.5500    0.0000 N   0  0  0  0  0  0  0  0  0  0  0  0
    3.5792   -1.9667    0.0000 C   0  0  0  0  0  0  0  0  0  0  0  0
    5.7167   -1.5417    0.0000 N   0  0  0  0  0  0  0  0  0  0  0  0
    7.1417   -0.7167    0.0000 N   0  0  0  0  0  0  0  0  0  0  0  0
    7.8542   -0.3000    0.0000 C   0  0  0  0  0  0  0  0  0  0  0  0
    2.8625   -3.2042    0.0000 C   0  0  0  0  0  0  0  0  0  0  0  0
    2.8625   -1.5542    0.0000 C   0  0  0  0  0  0  0  0  0  0  0  0
    8.5667   -0.7125    0.0000 C   0  0  0  0  0  0  0  0  0  0  0  0
    2.1500   -2.7917    0.0000 C   0  0  0  0  0  0  0  0  0  0  0  0
    2.1500   -1.9667    0.0000 C   0  0  0  0  0  0  0  0  0  0  0  0
    8.5750   -1.5375    0.0000 C   0  0  0  0  0  0  0  0  0  0  0  0
    5.7125   -0.7167    0.0000 C   0  0  0  0  0  0  0  0  0  0  0  0
    6.4292   -1.9542    0.0000 C   0  0  0  0  0  0  0  0  0  0  0  0
    7.1417   -1.5417    0.0000 C   0  0  0  0  0  0  0  0  0  0  0  0
    6.4250   -0.3042    0.0000 C   0  0  0  0  0  0  0  0  0  0  0  0
    7.8542    0.5250    0.0000 O   0  0  0  0  0  0  0  0  0  0  0  0
    4.2917   -4.0292    0.0000 N   0  0  0  0  0  0  0  0  0  0  0  0
    9.2917   -1.9500    0.0000 C   0  0  0  0  0  0  0  0  0  0  0  0
   10.7167   -2.7667    0.0000 C   0  0  0  0  0  0  0  0  0  0  0  0
    1.4292   -3.2042    0.0000 O   0  0  0  0  0  0  0  0  0  0  0  0
    1.4375   -1.5542    0.0000 O   0  0  0  0  0  0  0  0  0  0  0  0
    9.2875   -2.7750    0.0000 C   0  0  0  0  0  0  0  0  0  0  0  0
   10.0000   -1.5292    0.0000 C   0  0  0  0  0  0  0  0  0  0  0  0
   10.7042   -1.9417    0.0000 C   0  0  0  0  0  0  0  0  0  0  0  0
   10.0042   -3.1792    0.0000 C   0  0  0  0  0  0  0  0  0  0  0  0
   11.4292   -3.1792    0.0000 O   0  0  0  0  0  0  0  0  0  0  0  0
    0.7167   -2.7917    0.0000 C   0  0  0  0  0  0  0  0  0  0  0  0
    0.7167   -1.9667    0.0000 C   0  0  0  0  0  0  0  0  0  0  0  0
   11.4375   -4.0042    0.0000 C   0  0  0  0  0  0  0  0  0  0  0  0
  2  1  1  0
  3  6  1  0
  4  2  2  0
  5  1  2  0
  6  5  1  0
  7  1  1  0
  8 18  1  0
  9  8  1  0
 10  3  2  0
 11  6  2  0
 12  9  1  0
 13 14  2  0
 14 11  1  0
 15 12  2  0
 16  7  1  0
 17  7  1  0
 18 17  1  0
 19 16  1  0
 20  9  2  0
 21  4  1  0
 22 15  1  0
 23 28  1  0
 24 13  1  0
 25 14  1  0
 26 22  2  0
 27 22  1  0
 28 27  2  0
 29 26  1  0
 30 23  1  0
 31 24  1  0
 32 25  1  0
 33 30  1  0
  3  4  1  0
 19  8  1  0
 10 13  1  0
 29 23  2  0
M  END

> <chembl_id>
CHEMBL6347

> <chembl_pref_name>
None

$$$$

     RDKit          2D

 32 35  0  0  0  0  0  0  0  0999 V2000
    5.0042   -1.9542    0.0000 C   0  0  0  0  0  0  0  0  0  0  0  0
    5.0042   -2.7875    0.0000 N   0  0  0  0  0  0  0  0  0  0  0  0
    3.5792   -2.7917    0.0000 C   0  0  0  0  0  0  0  0  0  0  0  0
    4.2917   -3.2042    0.0000 C   0  0  0  0  0  0  0  0  0  0  0  0
    4.2875   -1.5500    0.0000 N   0  0  0  0  0  0  0  0  0  0  0  0
    3.5792   -1.9667    0.0000 C   0  0  0  0  0  0  0  0  0  0  0  0
    5.7167   -1.5417    0.0000 N   0  0  0  0  0  0  0  0  0  0  0  0
    7.1417   -0.7167    0.0000 N   0  0  0  0  0  0  0  0  0  0  0  0
    7.8542   -0.3000    0.0000 C   0  0  0  0  0  0  0  0  0  0  0  0
    2.8625   -3.2042    0.0000 C   0  0  0  0  0  0  0  0  0  0  0  0
    2.8625   -1.5542    0.0000 C   0  0  0  0  0  0  0  0  0  0  0  0
    8.5667   -0.7125    0.0000 C   0  0  0  0  0  0  0  0  0  0  0  0
    2.1500   -2.7917    0.0000 C   0  0  0  0  0  0  0  0  0  0  0  0
    2.1500   -1.9667    0.0000 C   0  0  0  0  0  0  0  0  0  0  0  0
    8.5750   -1.5375    0.0000 C   0  0  0  0  0  0  0  0  0  0  0  0
    5.7125   -0.7167    0.0000 C   0  0  0  0  0  0  0  0  0  0  0  0
    6.4292   -1.9542    0.0000 C   0  0  0  0  0  0  0  0  0  0  0  0
    7.1417   -1.5417    0.0000 C   0  0  0  0  0  0  0  0  0  0  0  0
    6.4250   -0.3042    0.0000 C   0  0  0  0  0  0  0  0  0  0  0  0
    7.8542    0.5250    0.0000 O   0  0  0  0  0  0  0  0  0  0  0  0
    4.2917   -4.0292    0.0000 N   0  0  0  0  0  0  0  0  0  0  0  0
    9.2917   -1.9500    0.0000 C   0  0  0  0  0  0  0  0  0  0  0  0
   10.0000   -1.5292    0.0000 C   0  0  0  0  0  0  0  0  0  0  0  0
   10.7042   -1.9417    0.0000 C   0  0  0  0  0  0  0  0  0  0  0  0
    1.4292   -3.2042    0.0000 O   0  0  0  0  0  0  0  0  0  0  0  0
    1.4375   -1.5542    0.0000 O   0  0  0  0  0  0  0  0  0  0  0  0
   11.4292   -1.5250    0.0000 F   0  0  0  0  0  0  0  0  0  0  0  0
   10.0042   -3.1792    0.0000 C   0  0  0  0  0  0  0  0  0  0  0  0
    9.2875   -2.7750    0.0000 C   0  0  0  0  0  0  0  0  0  0  0  0
   10.7167   -2.7667    0.0000 C   0  0  0  0  0  0  0  0  0  0  0  0
    0.7167   -2.7917    0.0000 C   0  0  0  0  0  0  0  0  0  0  0  0
    0.7167   -1.9667    0.0000 C   0  0  0  0  0  0  0  0  0  0  0  0
  2  1  1  0
  3  6  1  0
  4  2  2  0
  5  1  2  0
  6  5  1  0
  7  1  1  0
  8 18  1  0
  9  8  1  0
 10  3  2  0
 11  6  2  0
 12  9  1  0
 13 14  2  0
 14 11  1  0
 15 12  2  0
 16  7  1  0
 17  7  1  0
 18 17  1  0
 19 16  1  0
 20  9  2  0
 21  4  1  0
 22 15  1  0
 23 22  1  0
 24 23  2  0
 25 13  1  0
 26 14  1  0
 27 24  1  0
 28 29  1  0
 29 22  2  0
 30 28  2  0
 31 25  1  0
 32 26  1  0
  3  4  1  0
 19  8  1  0
 10 13  1  0
 24 30  1  0
M  END

> <chembl_id>
CHEMBL6348

> <chembl_pref_name>
None

$$$$

     RDKit          2D

 30 34  0  0  0  0  0  0  0  0999 V2000
    1.9750   -1.4292    0.0000 C   0  0  0  0  0  0  0  0  0  0  0  0
    1.9750   -2.2542    0.0000 N   0  0  0  0  0  0  0  0  0  0  0  0
    0.5417   -2.2542    0.0000 C   0  0  0  0  0  0  0  0  0  0  0  0
    1.2542   -2.6667    0.0000 C   0  0  0  0  0  0  0  0  0  0  0  0
    1.2542   -1.0167    0.0000 N   0  0  0  0  0  0  0  0  0  0  0  0
    4.8417    0.2333    0.0000 C   0  0  0  0  0  0  0  0  0  0  0  0
    0.5417   -1.4292    0.0000 C   0  0  0  0  0  0  0  0  0  0  0  0
    2.6917   -1.0167    0.0000 N   0  0  0  0  0  0  0  0  0  0  0  0
    5.5500   -0.2000    0.0000 C   0  0  0  0  0  0  0  0  0  0  0  0
    4.1167   -0.1917    0.0000 N   0  0  0  0  0  0  0  0  0  0  0  0
   -0.1708   -2.6667    0.0000 C   0  0  0  0  0  0  0  0  0  0  0  0
    6.2792   -0.0292    0.0000 C   0  0  0  0  0  0  0  0  0  0  0  0
   -0.1708   -1.0167    0.0000 C   0  0  0  0  0  0  0  0  0  0  0  0
    6.5917    0.6958    0.0000 C   0  0  0  0  0  0  0  0  0  0  0  0
   -0.8833   -2.2542    0.0000 C   0  0  0  0  0  0  0  0  0  0  0  0
   -0.8833   -1.4375    0.0000 C   0  0  0  0  0  0  0  0  0  0  0  0
    6.7250    0.0208    0.0000 C   0  0  0  0  0  0  0  0  0  0  0  0
    5.7042   -0.8125    0.0000 C   0  0  0  0  0  0  0  0  0  0  0  0
    4.8375    1.0583    0.0000 O   0  0  0  0  0  0  0  0  0  0  0  0
    2.6917   -0.1917    0.0000 C   0  0  0  0  0  0  0  0  0  0  0  0
    3.4042   -1.4292    0.0000 C   0  0  0  0  0  0  0  0  0  0  0  0
    6.5375   -0.6750    0.0000 C   0  0  0  0  0  0  0  0  0  0  0  0
    7.1292   -1.1542    0.0000 C   0  0  0  0  0  0  0  0  0  0  0  0
    4.1167   -1.0167    0.0000 C   0  0  0  0  0  0  0  0  0  0  0  0
    3.4042    0.2208    0.0000 C   0  0  0  0  0  0  0  0  0  0  0  0
    1.2542   -3.4917    0.0000 N   0  0  0  0  0  0  0  0  0  0  0  0
   -1.6083   -2.6792    0.0000 O   0  0  0  0  0  0  0  0  0  0  0  0
   -1.6083   -1.0167    0.0000 O   0  0  0  0  0  0  0  0  0  0  0  0
   -2.3250   -2.2667    0.0000 C   0  0  0  0  0  0  0  0  0  0  0  0
   -2.3208   -1.4375    0.0000 C   0  0  0  0  0  0  0  0  0  0  0  0
  2  1  1  0
  3  7  1  0
  4  2  2  0
  5  1  2  0
  6 10  1  0
  7  5  1  0
  8  1  1  0
  9  6  1  0
 10 24  1  0
 11  3  2  0
 12  9  1  0
 13  7  2  0
 14 12  1  0
 15 16  2  0
 16 13  1  0
 17 22  1  0
 18  9  1  0
 19  6  2  0
 20  8  1  0
 21  8  1  0
 22 18  1  0
 23 12  1  0
 24 21  1  0
 25 20  1  0
 26  4  1  0
 27 15  1  0
 28 16  1  0
 29 27  1  0
 30 28  1  0
  3  4  1  0
 25 10  1  0
 11 15  1  0
 23 22  1  0
 14 17  2  0
M  END

> <chembl_id>
CHEMBL6339

> <chembl_pref_name>
None

$$$$

     RDKit          2D

 28 30  0  0  0  0  0  0  0  0999 V2000
    5.0042   -1.9542    0.0000 C   0  0  0  0  0  0  0  0  0  0  0  0
    5.0042   -2.7875    0.0000 N   0  0  0  0  0  0  0  0  0  0  0  0
    3.5792   -2.7917    0.0000 C   0  0  0  0  0  0  0  0  0  0  0  0
    4.2917   -3.2042    0.0000 C   0  0  0  0  0  0  0  0  0  0  0  0
    4.2875   -1.5500    0.0000 N   0  0  0  0  0  0  0  0  0  0  0  0
    3.5792   -1.9667    0.0000 C   0  0  0  0  0  0  0  0  0  0  0  0
    5.7167   -1.5417    0.0000 N   0  0  0  0  0  0  0  0  0  0  0  0
    7.1417   -0.7167    0.0000 N   0  0  0  0  0  0  0  0  0  0  0  0
    2.8625   -3.2042    0.0000 C   0  0  0  0  0  0  0  0  0  0  0  0
    7.8542   -0.3000    0.0000 C   0  0  0  0  0  0  0  0  0  0  0  0
    2.8625   -1.5542    0.0000 C   0  0  0  0  0  0  0  0  0  0  0  0
    2.1500   -2.7917    0.0000 C   0  0  0  0  0  0  0  0  0  0  0  0
    2.1500   -1.9667    0.0000 C   0  0  0  0  0  0  0  0  0  0  0  0
    5.7125   -0.7167    0.0000 C   0  0  0  0  0  0  0  0  0  0  0  0
    6.4292   -1.9542    0.0000 C   0  0  0  0  0  0  0  0  0  0  0  0
    7.1417   -1.5417    0.0000 C   0  0  0  0  0  0  0  0  0  0  0  0
    6.4250   -0.3042    0.0000 C   0  0  0  0  0  0  0  0  0  0  0  0
    8.5667   -0.7125    0.0000 C   0  0  0  0  0  0  0  0  0  0  0  0
    7.8542    0.5250    0.0000 O   0  0  0  0  0  0  0  0  0  0  0  0
    8.5750   -1.5375    0.0000 C   0  0  0  0  0  0  0  0  0  0  0  0
    9.2917   -1.9500    0.0000 C   0  0  0  0  0  0  0  0  0  0  0  0
    4.2917   -4.0292    0.0000 N   0  0  0  0  0  0  0  0  0  0  0  0
    9.2917   -2.7750    0.0000 C   0  0  0  0  0  0  0  0  0  0  0  0
    1.4292   -3.2042    0.0000 O   0  0  0  0  0  0  0  0  0  0  0  0
    1.4375   -1.5542    0.0000 O   0  0  0  0  0  0  0  0  0  0  0  0
   10.0042   -3.1792    0.0000 C   0  0  0  0  0  0  0  0  0  0  0  0
    0.7167   -2.7917    0.0000 C   0  0  0  0  0  0  0  0  0  0  0  0
    0.7167   -1.9667    0.0000 C   0  0  0  0  0  0  0  0  0  0  0  0
  2  1  1  0
  3  6  1  0
  4  2  2  0
  5  1  2  0
  6  5  1  0
  7  1  1  0
  8 16  1  0
  9  3  2  0
 10  8  1  0
 11  6  2  0
 12 13  2  0
 13 11  1  0
 14  7  1  0
 15  7  1  0
 16 15  1  0
 17 14  1  0
 18 10  1  0
 19 10  2  0
 20 18  2  0
 21 20  1  0
 22  4  1  0
 23 21  2  0
 24 12  1  0
 25 13  1  0
 26 23  1  0
 27 24  1  0
 28 25  1  0
  3  4  1  0
 17  8  1  0
  9 12  1  0
M  END

> <chembl_id>
CHEMBL6340

> <chembl_pref_name>
None

$$$$

     RDKit          2D

 31 34  0  0  0  0  0  0  0  0999 V2000
    5.0042   -1.9542    0.0000 C   0  0  0  0  0  0  0  0  0  0  0  0
    5.0042   -2.7875    0.0000 N   0  0  0  0  0  0  0  0  0  0  0  0
    3.5792   -2.7917    0.0000 C   0  0  0  0  0  0  0  0  0  0  0  0
    4.2917   -3.2042    0.0000 C   0  0  0  0  0  0  0  0  0  0  0  0
    4.2875   -1.5500    0.0000 N   0  0  0  0  0  0  0  0  0  0  0  0
    3.5792   -1.9667    0.0000 C   0  0  0  0  0  0  0  0  0  0  0  0
    5.7167   -1.5417    0.0000 N   0  0  0  0  0  0  0  0  0  0  0  0
    7.1417   -0.7167    0.0000 N   0  0  0  0  0  0  0  0  0  0  0  0
    7.8542   -0.3000    0.0000 C   0  0  0  0  0  0  0  0  0  0  0  0
    2.8625   -3.2042    0.0000 C   0  0  0  0  0  0  0  0  0  0  0  0
    2.8625   -1.5542    0.0000 C   0  0  0  0  0  0  0  0  0  0  0  0
    8.5667   -0.7125    0.0000 C   0  0  0  0  0  0  0  0  0  0  0  0
    2.1500   -2.7917    0.0000 C   0  0  0  0  0  0  0  0  0  0  0  0
    2.1500   -1.9667    0.0000 C   0  0  0  0  0  0  0  0  0  0  0  0
    8.5750   -1.5375    0.0000 C   0  0  0  0  0  0  0  0  0  0  0  0
    5.7125   -0.7167    0.0000 C   0  0  0  0  0  0  0  0  0  0  0  0
    6.4292   -1.9542    0.0000 C   0  0  0  0  0  0  0  0  0  0  0  0
    7.1417   -1.5417    0.0000 C   0  0  0  0  0  0  0  0  0  0  0  0
    6.4250   -0.3042    0.0000 C   0  0  0  0  0  0  0  0  0  0  0  0
    7.8542    0.5250    0.0000 O   0  0  0  0  0  0  0  0  0  0  0  0
    4.2917   -4.0292    0.0000 N   0  0  0  0  0  0  0  0  0  0  0  0
    9.2917   -1.9500    0.0000 C   0  0  0  0  0  0  0  0  0  0  0  0
    1.4292   -3.2042    0.0000 O   0  0  0  0  0  0  0  0  0  0  0  0
    1.4375   -1.5542    0.0000 O   0  0  0  0  0  0  0  0  0  0  0  0
    9.2875   -2.7750    0.0000 C   0  0  0  0  0  0  0  0  0  0  0  0
   10.0000   -1.5292    0.0000 C   0  0  0  0  0  0  0  0  0  0  0  0
    0.7167   -2.7917    0.0000 C   0  0  0  0  0  0  0  0  0  0  0  0
    0.7167   -1.9667    0.0000 C   0  0  0  0  0  0  0  0  0  0  0  0
   10.7042   -1.9417    0.0000 C   0  0  0  0  0  0  0  0  0  0  0  0
   10.0042   -3.1792    0.0000 C   0  0  0  0  0  0  0  0  0  0  0  0
   10.7167   -2.7667    0.0000 C   0  0  0  0  0  0  0  0  0  0  0  0
  2  1  1  0
  3  6  1  0
  4  2  2  0
  5  1  2  0
  6  5  1  0
  7  1  1  0
  8 18  1  0
  9  8  1  0
 10  3  2  0
 11  6  2  0
 12  9  1  0
 13 14  2  0
 14 11  1  0
 15 12  2  0
 16  7  1  0
 17  7  1  0
 18 17  1  0
 19 16  1  0
 20  9  2  0
 21  4  1  0
 22 15  1  0
 23 13  1  0
 24 14  1  0
 25 22  2  0
 26 22  1  0
 27 23  1  0
 28 24  1  0
 29 26  2  0
 30 25  1  0
 31 29  1  0
  3  4  1  0
 19  8  1  0
 10 13  1  0
 30 31  2  0
M  END

> <chembl_id>
CHEMBL268768

> <chembl_pref_name>
None

$$$$

     RDKit          2D

 32 35  0  0  0  0  0  0  0  0999 V2000
    5.0042   -1.9542    0.0000 C   0  0  0  0  0  0  0  0  0  0  0  0
    5.0042   -2.7875    0.0000 N   0  0  0  0  0  0  0  0  0  0  0  0
    3.5792   -2.7917    0.0000 C   0  0  0  0  0  0  0  0  0  0  0  0
    4.2917   -3.2042    0.0000 C   0  0  0  0  0  0  0  0  0  0  0  0
    4.2875   -1.5500    0.0000 N   0  0  0  0  0  0  0  0  0  0  0  0
    3.5792   -1.9667    0.0000 C   0  0  0  0  0  0  0  0  0  0  0  0
    5.7167   -1.5417    0.0000 N   0  0  0  0  0  0  0  0  0  0  0  0
    7.1417   -0.7167    0.0000 N   0  0  0  0  0  0  0  0  0  0  0  0
    7.8542   -0.3000    0.0000 C   0  0  0  0  0  0  0  0  0  0  0  0
    2.8625   -3.2042    0.0000 C   0  0  0  0  0  0  0  0  0  0  0  0
    2.8625   -1.5542    0.0000 C   0  0  0  0  0  0  0  0  0  0  0  0
    8.5667   -0.7125    0.0000 C   0  0  0  0  0  0  0  0  0  0  0  0
    2.1500   -2.7917    0.0000 C   0  0  0  0  0  0  0  0  0  0  0  0
    2.1500   -1.9667    0.0000 C   0  0  0  0  0  0  0  0  0  0  0  0
    8.5750   -1.5375    0.0000 C   0  0  0  0  0  0  0  0  0  0  0  0
    5.7125   -0.7167    0.0000 C   0  0  0  0  0  0  0  0  0  0  0  0
    6.4292   -1.9542    0.0000 C   0  0  0  0  0  0  0  0  0  0  0  0
    7.1417   -1.5417    0.0000 C   0  0  0  0  0  0  0  0  0  0  0  0
    6.4250   -0.3042    0.0000 C   0  0  0  0  0  0  0  0  0  0  0  0
    7.8542    0.5250    0.0000 O   0  0  0  0  0  0  0  0  0  0  0  0
    4.2917   -4.0292    0.0000 N   0  0  0  0  0  0  0  0  0  0  0  0
    9.2917   -1.9500    0.0000 C   0  0  0  0  0  0  0  0  0  0  0  0
   10.7167   -2.7667    0.0000 C   0  0  0  0  0  0  0  0  0  0  0  0
    1.4292   -3.2042    0.0000 O   0  0  0  0  0  0  0  0  0  0  0  0
    1.4375   -1.5542    0.0000 O   0  0  0  0  0  0  0  0  0  0  0  0
   11.4292   -3.1792    0.0000 F   0  0  0  0  0  0  0  0  0  0  0  0
   10.0000   -1.5292    0.0000 C   0  0  0  0  0  0  0  0  0  0  0  0
    9.2875   -2.7750    0.0000 C   0  0  0  0  0  0  0  0  0  0  0  0
   10.0042   -3.1792    0.0000 C   0  0  0  0  0  0  0  0  0  0  0  0
   10.7042   -1.9417    0.0000 C   0  0  0  0  0  0  0  0  0  0  0  0
    0.7167   -2.7917    0.0000 C   0  0  0  0  0  0  0  0  0  0  0  0
    0.7167   -1.9667    0.0000 C   0  0  0  0  0  0  0  0  0  0  0  0
  2  1  1  0
  3  6  1  0
  4  2  2  0
  5  1  2  0
  6  5  1  0
  7  1  1  0
  8 18  1  0
  9  8  1  0
 10  3  2  0
 11  6  2  0
 12  9  1  0
 13 14  2  0
 14 11  1  0
 15 12  2  0
 16  7  1  0
 17  7  1  0
 18 17  1  0
 19 16  1  0
 20  9  2  0
 21  4  1  0
 22 15  1  0
 23 29  2  0
 24 13  1  0
 25 14  1  0
 26 23  1  0
 27 22  1  0
 28 22  2  0
 29 28  1  0
 30 27  2  0
 31 24  1  0
 32 25  1  0
  3  4  1  0
 19  8  1  0
 10 13  1  0
 30 23  1  0
M  END

> <chembl_id>
CHEMBL6358

> <chembl_pref_name>
None

$$$$

     RDKit          2D

 32 35  0  0  0  0  0  0  0  0999 V2000
    1.0271   -0.2836    0.0000 C   0  0  0  0  0  0  0  0  0  0  0  0
    1.0271   -1.1086    0.0000 N   0  0  0  0  0  0  0  0  0  0  0  0
    2.4560   -1.1086    0.0000 C   0  0  0  0  0  0  0  0  0  0  0  0
    1.7415   -1.5211    0.0000 C   0  0  0  0  0  0  0  0  0  0  0  0
    1.7415    0.1289    0.0000 N   0  0  0  0  0  0  0  0  0  0  0  0
    2.4560   -0.2836    0.0000 C   0  0  0  0  0  0  0  0  0  0  0  0
    0.3126    0.1289    0.0000 N   0  0  0  0  0  0  0  0  0  0  0  0
   -1.1164    0.9539    0.0000 N   0  0  0  0  0  0  0  0  0  0  0  0
   -1.8308    1.3664    0.0000 C   0  0  0  0  0  0  0  0  0  0  0  0
    3.1705   -1.5211    0.0000 C   0  0  0  0  0  0  0  0  0  0  0  0
    3.1705    0.1289    0.0000 C   0  0  0  0  0  0  0  0  0  0  0  0
   -2.5453    0.9539    0.0000 C   0  0  0  0  0  0  0  0  0  0  0  0
    3.8849   -1.1086    0.0000 C   0  0  0  0  0  0  0  0  0  0  0  0
    3.8849   -0.2836    0.0000 C   0  0  0  0  0  0  0  0  0  0  0  0
   -3.2598    1.3664    0.0000 C   0  0  0  0  0  0  0  0  0  0  0  0
   -0.4019   -0.2836    0.0000 C   0  0  0  0  0  0  0  0  0  0  0  0
    0.3126    0.9539    0.0000 C   0  0  0  0  0  0  0  0  0  0  0  0
   -0.4019    1.3664    0.0000 C   0  0  0  0  0  0  0  0  0  0  0  0
   -1.1164    0.1289    0.0000 C   0  0  0  0  0  0  0  0  0  0  0  0
   -1.8308    2.1914    0.0000 O   0  0  0  0  0  0  0  0  0  0  0  0
    1.7415   -2.3461    0.0000 N   0  0  0  0  0  0  0  0  0  0  0  0
   -3.9742    0.9539    0.0000 C   0  0  0  0  0  0  0  0  0  0  0  0
   -5.4032    0.1289    0.0000 C   0  0  0  0  0  0  0  0  0  0  0  0
    4.5994   -1.5211    0.0000 O   0  0  0  0  0  0  0  0  0  0  0  0
    4.5994    0.1289    0.0000 O   0  0  0  0  0  0  0  0  0  0  0  0
   -6.1177   -0.2836    0.0000 Cl  0  0  0  0  0  0  0  0  0  0  0  0
   -3.9742    0.1289    0.0000 C   0  0  0  0  0  0  0  0  0  0  0  0
   -4.6887    1.3664    0.0000 C   0  0  0  0  0  0  0  0  0  0  0  0
   -5.4032    0.9539    0.0000 C   0  0  0  0  0  0  0  0  0  0  0  0
   -4.6887   -0.2836    0.0000 C   0  0  0  0  0  0  0  0  0  0  0  0
    5.3139   -1.1086    0.0000 C   0  0  0  0  0  0  0  0  0  0  0  0
    5.3139   -0.2836    0.0000 C   0  0  0  0  0  0  0  0  0  0  0  0
  1  2  2  0
  2  4  1  0
  3  4  2  0
  1  5  1  0
  3  6  1  0
  5  6  2  0
  1  7  1  0
  8  9  1  0
  3 10  1  0
  6 11  1  0
  9 12  1  0
 10 13  2  0
 11 14  2  0
 13 14  1  0
 12 15  2  0
  7 16  1  0
  7 17  1  0
  8 18  1  0
 17 18  1  0
  8 19  1  0
 16 19  1  0
  9 20  2  0
  4 21  1  0
 15 22  1  0
 13 24  1  0
 14 25  1  0
 23 26  1  0
 22 27  2  0
 22 28  1  0
 23 29  1  0
 28 29  2  0
 23 30  2  0
 27 30  1  0
 24 31  1  0
 25 32  1  0
M  END

> <chembl_id>
CHEMBL6351

> <chembl_pref_name>
None

$$$$

     RDKit          2D

 32 35  0  0  0  0  0  0  0  0999 V2000
    1.9667   -1.4250    0.0000 C   0  0  0  0  0  0  0  0  0  0  0  0
    1.9750   -2.2542    0.0000 N   0  0  0  0  0  0  0  0  0  0  0  0
    0.5417   -2.2542    0.0000 C   0  0  0  0  0  0  0  0  0  0  0  0
    1.2625   -2.6667    0.0000 C   0  0  0  0  0  0  0  0  0  0  0  0
    1.2542   -1.0167    0.0000 N   0  0  0  0  0  0  0  0  0  0  0  0
    0.5417   -1.4292    0.0000 C   0  0  0  0  0  0  0  0  0  0  0  0
    4.8250    0.2333    0.0000 C   0  0  0  0  0  0  0  0  0  0  0  0
    2.6792   -1.0125    0.0000 N   0  0  0  0  0  0  0  0  0  0  0  0
    5.5375   -0.1792    0.0000 C   0  0  0  0  0  0  0  0  0  0  0  0
    4.1042   -0.1792    0.0000 N   0  0  0  0  0  0  0  0  0  0  0  0
   -0.1708   -2.6750    0.0000 C   0  0  0  0  0  0  0  0  0  0  0  0
   -0.1708   -1.0167    0.0000 C   0  0  0  0  0  0  0  0  0  0  0  0
    5.5417   -1.0042    0.0000 C   0  0  0  0  0  0  0  0  0  0  0  0
   -0.8833   -2.2625    0.0000 C   0  0  0  0  0  0  0  0  0  0  0  0
   -0.8833   -1.4375    0.0000 C   0  0  0  0  0  0  0  0  0  0  0  0
    2.6792   -0.1875    0.0000 C   0  0  0  0  0  0  0  0  0  0  0  0
    3.4000   -1.4167    0.0000 C   0  0  0  0  0  0  0  0  0  0  0  0
    4.1125   -1.0042    0.0000 C   0  0  0  0  0  0  0  0  0  0  0  0
    3.3917    0.2333    0.0000 C   0  0  0  0  0  0  0  0  0  0  0  0
    4.8167    1.0583    0.0000 O   0  0  0  0  0  0  0  0  0  0  0  0
    1.2542   -3.4917    0.0000 N   0  0  0  0  0  0  0  0  0  0  0  0
    6.2542    0.2333    0.0000 F   0  0  0  0  0  0  0  0  0  0  0  0
    6.2542   -1.4167    0.0000 C   0  0  0  0  0  0  0  0  0  0  0  0
   -1.6000   -2.6750    0.0000 O   0  0  0  0  0  0  0  0  0  0  0  0
   -1.5958   -1.0250    0.0000 O   0  0  0  0  0  0  0  0  0  0  0  0
    6.9667   -1.0000    0.0000 C   0  0  0  0  0  0  0  0  0  0  0  0
    6.2542   -2.2417    0.0000 C   0  0  0  0  0  0  0  0  0  0  0  0
   -2.3125   -1.4375    0.0000 C   0  0  0  0  0  0  0  0  0  0  0  0
   -2.3125   -2.2625    0.0000 C   0  0  0  0  0  0  0  0  0  0  0  0
    6.9667   -2.6500    0.0000 C   0  0  0  0  0  0  0  0  0  0  0  0
    7.6792   -1.4042    0.0000 C   0  0  0  0  0  0  0  0  0  0  0  0
    7.6792   -2.2375    0.0000 C   0  0  0  0  0  0  0  0  0  0  0  0
  2  1  1  0
  3  6  1  0
  4  2  2  0
  5  1  2  0
  6  5  1  0
  7 10  1  0
  8  1  1  0
  9  7  1  0
 10 18  1  0
 11  3  2  0
 12  6  2  0
 13  9  2  0
 14 15  2  0
 15 12  1  0
 16  8  1  0
 17  8  1  0
 18 17  1  0
 19 16  1  0
 20  7  2  0
 21  4  1  0
 22  9  1  0
 23 13  1  0
 24 14  1  0
 25 15  1  0
 26 23  1  0
 27 23  2  0
 28 25  1  0
 29 24  1  0
 30 27  1  0
 31 26  2  0
 32 30  2  0
  3  4  1  0
 19 10  1  0
 11 14  1  0
 31 32  1  0
M  END

> <chembl_id>
CHEMBL6342

> <chembl_pref_name>
None

$$$$

     RDKit          2D

 30 33  0  0  0  0  0  0  0  0999 V2000
    1.9667   -1.4250    0.0000 C   0  0  0  0  0  0  0  0  0  0  0  0
    1.9750   -2.2542    0.0000 N   0  0  0  0  0  0  0  0  0  0  0  0
    0.5417   -2.2542    0.0000 C   0  0  0  0  0  0  0  0  0  0  0  0
    1.2625   -2.6667    0.0000 C   0  0  0  0  0  0  0  0  0  0  0  0
    1.2542   -1.0167    0.0000 N   0  0  0  0  0  0  0  0  0  0  0  0
    4.8250    0.2333    0.0000 C   0  0  0  0  0  0  0  0  0  0  0  0
    0.5417   -1.4292    0.0000 C   0  0  0  0  0  0  0  0  0  0  0  0
    2.6792   -1.0125    0.0000 N   0  0  0  0  0  0  0  0  0  0  0  0
    4.1042   -0.1792    0.0000 N   0  0  0  0  0  0  0  0  0  0  0  0
   -0.1708   -2.6750    0.0000 C   0  0  0  0  0  0  0  0  0  0  0  0
   -0.1708   -1.0167    0.0000 C   0  0  0  0  0  0  0  0  0  0  0  0
    5.5375   -0.1792    0.0000 N   0  0  0  0  0  0  0  0  0  0  0  0
   -0.8833   -2.2625    0.0000 C   0  0  0  0  0  0  0  0  0  0  0  0
   -0.8833   -1.4375    0.0000 C   0  0  0  0  0  0  0  0  0  0  0  0
    4.8167    1.0583    0.0000 O   0  0  0  0  0  0  0  0  0  0  0  0
    2.6792   -0.1875    0.0000 C   0  0  0  0  0  0  0  0  0  0  0  0
    3.4000   -1.4167    0.0000 C   0  0  0  0  0  0  0  0  0  0  0  0
    4.1125   -1.0042    0.0000 C   0  0  0  0  0  0  0  0  0  0  0  0
    3.3917    0.2333    0.0000 C   0  0  0  0  0  0  0  0  0  0  0  0
    1.2542   -3.4917    0.0000 N   0  0  0  0  0  0  0  0  0  0  0  0
    6.2542    0.2333    0.0000 C   0  0  0  0  0  0  0  0  0  0  0  0
   -1.6000   -2.6750    0.0000 O   0  0  0  0  0  0  0  0  0  0  0  0
   -1.5958   -1.0250    0.0000 O   0  0  0  0  0  0  0  0  0  0  0  0
    6.9667   -0.1792    0.0000 C   0  0  0  0  0  0  0  0  0  0  0  0
    6.2500    1.0583    0.0000 C   0  0  0  0  0  0  0  0  0  0  0  0
   -2.3125   -1.4375    0.0000 C   0  0  0  0  0  0  0  0  0  0  0  0
   -2.3125   -2.2625    0.0000 C   0  0  0  0  0  0  0  0  0  0  0  0
    6.9542    1.4708    0.0000 C   0  0  0  0  0  0  0  0  0  0  0  0
    7.6792    0.2333    0.0000 C   0  0  0  0  0  0  0  0  0  0  0  0
    7.6792    1.0583    0.0000 C   0  0  0  0  0  0  0  0  0  0  0  0
  2  1  1  0
  3  7  1  0
  4  2  2  0
  5  1  2  0
  6  9  1  0
  7  5  1  0
  8  1  1  0
  9 18  1  0
 10  3  2  0
 11  7  2  0
 12  6  1  0
 13 14  2  0
 14 11  1  0
 15  6  2  0
 16  8  1  0
 17  8  1  0
 18 17  1  0
 19 16  1  0
 20  4  1  0
 21 12  1  0
 22 13  1  0
 23 14  1  0
 24 21  2  0
 25 21  1  0
 26 23  1  0
 27 22  1  0
 28 25  2  0
 29 24  1  0
 30 28  1  0
  3  4  1  0
 19  9  1  0
 10 13  1  0
 29 30  2  0
M  END

> <chembl_id>
CHEMBL6218

> <chembl_pref_name>
None

$$$$

     RDKit          2D

 40 43  0  0  0  0  0  0  0  0999 V2000
    1.9667   -1.4250    0.0000 C   0  0  0  0  0  0  0  0  0  0  0  0
    1.9750   -2.2542    0.0000 N   0  0  0  0  0  0  0  0  0  0  0  0
    0.5417   -2.2542    0.0000 C   0  0  0  0  0  0  0  0  0  0  0  0
    1.2625   -2.6667    0.0000 C   0  0  0  0  0  0  0  0  0  0  0  0
    1.2542   -1.0167    0.0000 N   0  0  0  0  0  0  0  0  0  0  0  0
    0.5417   -1.4292    0.0000 C   0  0  0  0  0  0  0  0  0  0  0  0
    2.6792   -1.0125    0.0000 N   0  0  0  0  0  0  0  0  0  0  0  0
    4.1042   -0.1792    0.0000 N   0  0  0  0  0  0  0  0  0  0  0  0
    4.8250    0.2333    0.0000 C   0  0  0  0  0  0  0  0  0  0  0  0
   -0.1708   -2.6750    0.0000 C   0  0  0  0  0  0  0  0  0  0  0  0
   -0.1708   -1.0167    0.0000 C   0  0  0  0  0  0  0  0  0  0  0  0
    5.5375   -0.1792    0.0000 C   0  0  0  0  0  0  0  0  0  0  0  0
   -0.8833   -2.2625    0.0000 C   0  0  0  0  0  0  0  0  0  0  0  0
   -0.8833   -1.4375    0.0000 C   0  0  0  0  0  0  0  0  0  0  0  0
    9.1125   -2.2292    0.0000 C   0  0  0  0  0  0  0  0  0  0  0  0
    9.8292   -2.6417    0.0000 C   0  0  0  0  0  0  0  0  0  0  0  0
    9.8292   -3.4667    0.0000 C   0  0  0  0  0  0  0  0  0  0  0  0
   10.5500   -3.8750    0.0000 C   0  0  0  0  0  0  0  0  0  0  0  0
    5.5417   -1.0042    0.0000 C   0  0  0  0  0  0  0  0  0  0  0  0
    8.4000   -2.6417    0.0000 N   0  0  0  0  0  0  0  0  0  0  0  0
    3.4000   -1.4167    0.0000 C   0  0  0  0  0  0  0  0  0  0  0  0
    2.6792   -0.1875    0.0000 C   0  0  0  0  0  0  0  0  0  0  0  0
    3.3917    0.2333    0.0000 C   0  0  0  0  0  0  0  0  0  0  0  0
    4.1125   -1.0042    0.0000 C   0  0  0  0  0  0  0  0  0  0  0  0
    4.8167    1.0583    0.0000 O   0  0  0  0  0  0  0  0  0  0  0  0
    9.1125   -1.4042    0.0000 O   0  0  0  0  0  0  0  0  0  0  0  0
   10.5500   -4.7000    0.0000 O   0  0  0  0  0  0  0  0  0  0  0  0
    1.2542   -3.4917    0.0000 N   0  0  0  0  0  0  0  0  0  0  0  0
    6.2542   -1.4167    0.0000 C   0  0  0  0  0  0  0  0  0  0  0  0
    7.6792   -2.2375    0.0000 C   0  0  0  0  0  0  0  0  0  0  0  0
   -1.6000   -2.6750    0.0000 O   0  0  0  0  0  0  0  0  0  0  0  0
   -1.5958   -1.0250    0.0000 O   0  0  0  0  0  0  0  0  0  0  0  0
   11.2625   -3.4625    0.0000 O   0  0  0  0  0  0  0  0  0  0  0  0
    6.2542   -2.2417    0.0000 C   0  0  0  0  0  0  0  0  0  0  0  0
    6.9667   -1.0000    0.0000 C   0  0  0  0  0  0  0  0  0  0  0  0
    7.6792   -1.4042    0.0000 C   0  0  0  0  0  0  0  0  0  0  0  0
    6.9667   -2.6500    0.0000 C   0  0  0  0  0  0  0  0  0  0  0  0
   -2.3125   -1.4375    0.0000 C   0  0  0  0  0  0  0  0  0  0  0  0
   -2.3125   -2.2625    0.0000 C   0  0  0  0  0  0  0  0  0  0  0  0
   11.9792   -3.8667    0.0000 C   0  0  0  0  0  0  0  0  0  0  0  0
  2  1  1  0
  3  6  1  0
  4  2  2  0
  5  1  2  0
  6  5  1  0
  7  1  1  0
  8 23  1  0
  9  8  1  0
 10  3  2  0
 11  6  2  0
 12  9  1  0
 13 14  2  0
 14 11  1  0
 15 20  1  0
 16 15  1  0
 17 16  2  0
 18 17  1  0
 19 12  2  0
 20 30  1  0
 21  7  1  0
 22  7  1  0
 23 22  1  0
 24 21  1  0
 25  9  2  0
 26 15  2  0
 27 18  2  0
 28  4  1  0
 29 19  1  0
 30 36  1  0
 31 13  1  0
 32 14  1  0
 33 18  1  0
 34 29  2  0
 35 29  1  0
 36 35  2  0
 37 34  1  0
 38 32  1  0
 39 31  1  0
 40 33  1  0
  4  3  1  0
 24  8  1  0
 13 10  1  0
 37 30  2  0
M  END

> <chembl_id>
CHEMBL6219

> <chembl_pref_name>
None

$$$$

     RDKit          2D

 30 33  0  0  0  0  0  0  0  0999 V2000
    1.9667   -1.4250    0.0000 C   0  0  0  0  0  0  0  0  0  0  0  0
    1.9750   -2.2542    0.0000 N   0  0  0  0  0  0  0  0  0  0  0  0
    0.5417   -2.2542    0.0000 C   0  0  0  0  0  0  0  0  0  0  0  0
    1.2625   -2.6667    0.0000 C   0  0  0  0  0  0  0  0  0  0  0  0
    1.2542   -1.0167    0.0000 N   0  0  0  0  0  0  0  0  0  0  0  0
    4.8250    0.2333    0.0000 C   0  0  0  0  0  0  0  0  0  0  0  0
    0.5417   -1.4292    0.0000 C   0  0  0  0  0  0  0  0  0  0  0  0
    2.6792   -1.0125    0.0000 N   0  0  0  0  0  0  0  0  0  0  0  0
    4.1042   -0.1792    0.0000 N   0  0  0  0  0  0  0  0  0  0  0  0
   -0.1708   -2.6750    0.0000 C   0  0  0  0  0  0  0  0  0  0  0  0
   -0.1708   -1.0167    0.0000 C   0  0  0  0  0  0  0  0  0  0  0  0
    5.5375   -0.1792    0.0000 N   0  0  0  0  0  0  0  0  0  0  0  0
   -0.8833   -2.2625    0.0000 C   0  0  0  0  0  0  0  0  0  0  0  0
   -0.8833   -1.4375    0.0000 C   0  0  0  0  0  0  0  0  0  0  0  0
    4.8167    1.0583    0.0000 S   0  0  0  0  0  0  0  0  0  0  0  0
    2.6792   -0.1875    0.0000 C   0  0  0  0  0  0  0  0  0  0  0  0
    3.4000   -1.4167    0.0000 C   0  0  0  0  0  0  0  0  0  0  0  0
    4.1125   -1.0042    0.0000 C   0  0  0  0  0  0  0  0  0  0  0  0
    3.3917    0.2333    0.0000 C   0  0  0  0  0  0  0  0  0  0  0  0
    1.2542   -3.4917    0.0000 N   0  0  0  0  0  0  0  0  0  0  0  0
    6.2542    0.2333    0.0000 C   0  0  0  0  0  0  0  0  0  0  0  0
   -1.6000   -2.6750    0.0000 O   0  0  0  0  0  0  0  0  0  0  0  0
   -1.5958   -1.0250    0.0000 O   0  0  0  0  0  0  0  0  0  0  0  0
   -2.3125   -1.4375    0.0000 C   0  0  0  0  0  0  0  0  0  0  0  0
   -2.3125   -2.2625    0.0000 C   0  0  0  0  0  0  0  0  0  0  0  0
    6.9667   -0.1792    0.0000 C   0  0  0  0  0  0  0  0  0  0  0  0
    6.2500    1.0583    0.0000 C   0  0  0  0  0  0  0  0  0  0  0  0
    6.9542    1.4708    0.0000 C   0  0  0  0  0  0  0  0  0  0  0  0
    7.6792    0.2333    0.0000 C   0  0  0  0  0  0  0  0  0  0  0  0
    7.6792    1.0583    0.0000 C   0  0  0  0  0  0  0  0  0  0  0  0
  2  1  2  0
  3  7  1  0
  4  2  1  0
  5  1  1  0
  6  9  1  0
  7  5  2  0
  8  1  1  0
  9 18  1  0
 10  3  1  0
 11  7  1  0
 12  6  2  0
 13 14  1  0
 14 11  2  0
 15  6  1  0
 16  8  1  0
 17  8  1  0
 18 17  1  0
 19 16  1  0
 20  4  1  0
 21 12  1  0
 22 13  1  0
 23 14  1  0
 24 23  1  0
 25 22  1  0
 26 21  1  0
 27 21  1  0
 28 27  1  0
 29 26  1  0
 30 28  1  0
  3  4  2  0
 19  9  1  0
 10 13  2  0
 29 30  1  0
M  END

> <chembl_id>
CHEMBL6208

> <chembl_pref_name>
None

$$$$

     RDKit          2D

 31 35  0  0  0  0  0  0  0  0999 V2000
    1.9750   -1.4292    0.0000 C   0  0  0  0  0  0  0  0  0  0  0  0
    1.9750   -2.2542    0.0000 N   0  0  0  0  0  0  0  0  0  0  0  0
    5.5625   -0.1667    0.0000 C   0  0  0  0  0  0  0  0  0  0  0  0
    0.5417   -2.2542    0.0000 C   0  0  0  0  0  0  0  0  0  0  0  0
    4.8417    0.2333    0.0000 C   0  0  0  0  0  0  0  0  0  0  0  0
    1.2542   -2.6667    0.0000 C   0  0  0  0  0  0  0  0  0  0  0  0
    1.2542   -1.0167    0.0000 N   0  0  0  0  0  0  0  0  0  0  0  0
    0.5417   -1.4292    0.0000 C   0  0  0  0  0  0  0  0  0  0  0  0
    2.6917   -1.0167    0.0000 N   0  0  0  0  0  0  0  0  0  0  0  0
    4.1167   -0.1917    0.0000 N   0  0  0  0  0  0  0  0  0  0  0  0
   -0.1708   -2.6667    0.0000 C   0  0  0  0  0  0  0  0  0  0  0  0
   -0.1708   -1.0167    0.0000 C   0  0  0  0  0  0  0  0  0  0  0  0
    5.6667   -0.9042    0.0000 C   0  0  0  0  0  0  0  0  0  0  0  0
   -0.8833   -2.2542    0.0000 C   0  0  0  0  0  0  0  0  0  0  0  0
   -0.8833   -1.4375    0.0000 C   0  0  0  0  0  0  0  0  0  0  0  0
    6.3500    0.1750    0.0000 C   0  0  0  0  0  0  0  0  0  0  0  0
    7.0750   -0.1500    0.0000 C   0  0  0  0  0  0  0  0  0  0  0  0
    7.2250   -0.9000    0.0000 C   0  0  0  0  0  0  0  0  0  0  0  0
    4.8375    1.0583    0.0000 O   0  0  0  0  0  0  0  0  0  0  0  0
    2.6917   -0.1917    0.0000 C   0  0  0  0  0  0  0  0  0  0  0  0
    3.4042   -1.4292    0.0000 C   0  0  0  0  0  0  0  0  0  0  0  0
    4.1167   -1.0167    0.0000 C   0  0  0  0  0  0  0  0  0  0  0  0
    3.4042    0.2208    0.0000 C   0  0  0  0  0  0  0  0  0  0  0  0
    6.4917   -0.5542    0.0000 C   0  0  0  0  0  0  0  0  0  0  0  0
    1.2542   -3.4917    0.0000 N   0  0  0  0  0  0  0  0  0  0  0  0
    6.3875    1.0583    0.0000 C   0  0  0  0  0  0  0  0  0  0  0  0
   -1.6083   -2.6792    0.0000 O   0  0  0  0  0  0  0  0  0  0  0  0
   -1.6083   -1.0167    0.0000 O   0  0  0  0  0  0  0  0  0  0  0  0
    6.6250    0.4583    0.0000 C   0  0  0  0  0  0  0  0  0  0  0  0
   -2.3250   -2.2667    0.0000 C   0  0  0  0  0  0  0  0  0  0  0  0
   -2.3208   -1.4375    0.0000 C   0  0  0  0  0  0  0  0  0  0  0  0
  2  1  1  0
  3  5  1  0
  4  8  1  0
  5 10  1  0
  6  2  2  0
  7  1  2  0
  8  7  1  0
  9  1  1  0
 10 22  1  0
 11  4  2  0
 12  8  2  0
 13  3  2  0
 14 15  2  0
 15 12  1  0
 16  3  1  0
 17 16  1  0
 18 17  2  0
 19  5  2  0
 20  9  1  0
 21  9  1  0
 22 21  1  0
 23 20  1  0
 24 13  1  0
 25  6  1  0
 26 16  1  0
 27 14  1  0
 28 15  1  0
 29 26  1  0
 30 27  1  0
 31 28  1  0
  4  6  1  0
 23 10  1  0
 11 14  1  0
 24 18  1  0
 24 29  1  0
M  END

> <chembl_id>
CHEMBL429379

> <chembl_pref_name>
None

$$$$

     RDKit          2D

 31 34  0  0  0  0  0  0  0  0999 V2000
    4.8417    0.2333    0.0000 S   0  0  0  0  0  0  0  0  0  0  0  0
    1.9750   -1.4292    0.0000 C   0  0  0  0  0  0  0  0  0  0  0  0
    1.9750   -2.2542    0.0000 N   0  0  0  0  0  0  0  0  0  0  0  0
    0.5417   -2.2542    0.0000 C   0  0  0  0  0  0  0  0  0  0  0  0
    1.2542   -2.6667    0.0000 C   0  0  0  0  0  0  0  0  0  0  0  0
    4.1167   -0.1917    0.0000 N   0  0  0  0  0  0  0  0  0  0  0  0
    1.2542   -1.0167    0.0000 N   0  0  0  0  0  0  0  0  0  0  0  0
    0.5417   -1.4292    0.0000 C   0  0  0  0  0  0  0  0  0  0  0  0
    2.6917   -1.0167    0.0000 N   0  0  0  0  0  0  0  0  0  0  0  0
   -0.1708   -2.6667    0.0000 C   0  0  0  0  0  0  0  0  0  0  0  0
   -0.1708   -1.0167    0.0000 C   0  0  0  0  0  0  0  0  0  0  0  0
    5.5625    0.6500    0.0000 C   0  0  0  0  0  0  0  0  0  0  0  0
   -0.8833   -2.2542    0.0000 C   0  0  0  0  0  0  0  0  0  0  0  0
   -0.8833   -1.4375    0.0000 C   0  0  0  0  0  0  0  0  0  0  0  0
    5.2625   -0.4917    0.0000 O   0  0  0  0  0  0  0  0  0  0  0  0
    4.4167    0.9500    0.0000 O   0  0  0  0  0  0  0  0  0  0  0  0
    4.1167   -1.0167    0.0000 C   0  0  0  0  0  0  0  0  0  0  0  0
    3.4042    0.2208    0.0000 C   0  0  0  0  0  0  0  0  0  0  0  0
    3.4042   -1.4292    0.0000 C   0  0  0  0  0  0  0  0  0  0  0  0
    2.6917   -0.1917    0.0000 C   0  0  0  0  0  0  0  0  0  0  0  0
    1.2542   -3.4917    0.0000 N   0  0  0  0  0  0  0  0  0  0  0  0
    6.2750    0.2375    0.0000 C   0  0  0  0  0  0  0  0  0  0  0  0
    5.5542    1.4833    0.0000 C   0  0  0  0  0  0  0  0  0  0  0  0
   -1.6083   -2.6792    0.0000 O   0  0  0  0  0  0  0  0  0  0  0  0
   -1.6083   -1.0167    0.0000 O   0  0  0  0  0  0  0  0  0  0  0  0
    6.2667    1.8958    0.0000 C   0  0  0  0  0  0  0  0  0  0  0  0
    6.9917    0.6500    0.0000 C   0  0  0  0  0  0  0  0  0  0  0  0
    6.9875    1.4833    0.0000 C   0  0  0  0  0  0  0  0  0  0  0  0
    7.7042    1.9000    0.0000 C   0  0  0  0  0  0  0  0  0  0  0  0
   -2.3208   -1.4375    0.0000 C   0  0  0  0  0  0  0  0  0  0  0  0
   -2.3250   -2.2667    0.0000 C   0  0  0  0  0  0  0  0  0  0  0  0
  2  9  1  0
  3  2  1  0
  4  8  1  0
  5  3  2  0
  6  1  1  0
  7  2  2  0
  8  7  1  0
  9 20  1  0
 10  4  2  0
 11  8  2  0
 12  1  1  0
 13 14  2  0
 14 11  1  0
 15  1  2  0
 16  1  2  0
 17  6  1  0
 18  6  1  0
 19 17  1  0
 20 18  1  0
 21  5  1  0
 22 12  2  0
 23 12  1  0
 24 13  1  0
 25 14  1  0
 26 23  2  0
 27 22  1  0
 28 26  1  0
 29 28  1  0
 30 25  1  0
 31 24  1  0
  9 19  1  0
 27 28  2  0
  4  5  1  0
 10 13  1  0
M  END

> <chembl_id>
CHEMBL415285

> <chembl_pref_name>
None

$$$$

     RDKit          2D

 30 33  0  0  0  0  0  0  0  0999 V2000
    1.9667   -1.4250    0.0000 C   0  0  0  0  0  0  0  0  0  0  0  0
    1.9750   -2.2542    0.0000 N   0  0  0  0  0  0  0  0  0  0  0  0
    0.5417   -2.2542    0.0000 C   0  0  0  0  0  0  0  0  0  0  0  0
    1.2625   -2.6667    0.0000 C   0  0  0  0  0  0  0  0  0  0  0  0
    1.2542   -1.0167    0.0000 N   0  0  0  0  0  0  0  0  0  0  0  0
    4.8250    0.2333    0.0000 C   0  0  0  0  0  0  0  0  0  0  0  0
    0.5417   -1.4292    0.0000 C   0  0  0  0  0  0  0  0  0  0  0  0
    2.6792   -1.0125    0.0000 N   0  0  0  0  0  0  0  0  0  0  0  0
    4.1042   -0.1792    0.0000 N   0  0  0  0  0  0  0  0  0  0  0  0
   -0.1708   -2.6750    0.0000 C   0  0  0  0  0  0  0  0  0  0  0  0
   -0.1708   -1.0167    0.0000 C   0  0  0  0  0  0  0  0  0  0  0  0
    5.5375   -0.1792    0.0000 N   0  0  0  0  0  0  0  0  0  0  0  0
   -0.8833   -2.2625    0.0000 C   0  0  0  0  0  0  0  0  0  0  0  0
   -0.8833   -1.4375    0.0000 C   0  0  0  0  0  0  0  0  0  0  0  0
    4.8167    1.0583    0.0000 S   0  0  0  0  0  0  0  0  0  0  0  0
    2.6792   -0.1875    0.0000 C   0  0  0  0  0  0  0  0  0  0  0  0
    3.4000   -1.4167    0.0000 C   0  0  0  0  0  0  0  0  0  0  0  0
    4.1125   -1.0042    0.0000 C   0  0  0  0  0  0  0  0  0  0  0  0
    3.3917    0.2333    0.0000 C   0  0  0  0  0  0  0  0  0  0  0  0
    1.2542   -3.4917    0.0000 N   0  0  0  0  0  0  0  0  0  0  0  0
    6.2542    0.2333    0.0000 C   0  0  0  0  0  0  0  0  0  0  0  0
   -1.6000   -2.6750    0.0000 O   0  0  0  0  0  0  0  0  0  0  0  0
   -1.5958   -1.0250    0.0000 O   0  0  0  0  0  0  0  0  0  0  0  0
    6.9667   -0.1792    0.0000 C   0  0  0  0  0  0  0  0  0  0  0  0
    6.2500    1.0583    0.0000 C   0  0  0  0  0  0  0  0  0  0  0  0
   -2.3125   -1.4375    0.0000 C   0  0  0  0  0  0  0  0  0  0  0  0
   -2.3125   -2.2625    0.0000 C   0  0  0  0  0  0  0  0  0  0  0  0
    6.9542    1.4708    0.0000 C   0  0  0  0  0  0  0  0  0  0  0  0
    7.6792    0.2333    0.0000 C   0  0  0  0  0  0  0  0  0  0  0  0
    7.6792    1.0583    0.0000 C   0  0  0  0  0  0  0  0  0  0  0  0
  2  1  2  0
  3  7  1  0
  4  2  1  0
  5  1  1  0
  6  9  1  0
  7  5  2  0
  8  1  1  0
  9 18  1  0
 10  3  1  0
 11  7  1  0
 12  6  2  0
 13 14  1  0
 14 11  2  0
 15  6  1  0
 16  8  1  0
 17  8  1  0
 18 17  1  0
 19 16  1  0
 20  4  1  0
 21 12  1  0
 22 13  1  0
 23 14  1  0
 24 21  2  0
 25 21  1  0
 26 23  1  0
 27 22  1  0
 28 25  2  0
 29 24  1  0
 30 28  1  0
  3  4  2  0
 19  9  1  0
 10 13  2  0
 29 30  2  0
M  END

> <chembl_id>
CHEMBL264721

> <chembl_pref_name>
None

$$$$

     RDKit          2D

 21 23  0  0  0  0  0  0  0  0999 V2000
    3.8042   -1.6000    0.0000 C   0  0  0  0  0  0  0  0  0  0  0  0
    4.3167   -1.9000    0.0000 N   0  0  0  0  0  0  0  0  0  0  0  0
    3.8042   -1.0000    0.0000 N   0  0  0  0  0  0  0  0  0  0  0  0
    4.8417   -1.6000    0.0000 N   0  0  0  0  0  0  0  0  0  0  0  0
    4.8417   -1.0000    0.0000 C   0  0  0  0  0  0  0  0  0  0  0  0
    4.3167   -0.7000    0.0000 C   0  0  0  0  0  0  0  0  0  0  0  0
    4.8375   -4.5917    0.0000 C   0  0  0  0  0  0  0  0  0  0  0  0
    4.3167   -4.2917    0.0000 C   0  0  0  0  0  0  0  0  0  0  0  0
    5.3792   -4.3500    0.0000 S   0  0  0  0  0  0  0  0  0  0  0  0
    4.3167   -2.5000    0.0000 C   0  0  0  0  0  0  0  0  0  0  0  0
    3.2875   -1.8917    0.0000 O   0  0  0  0  0  0  0  0  0  0  0  0
    4.3167   -3.6917    0.0000 C   0  0  0  0  0  0  0  0  0  0  0  0
    4.9000   -5.2000    0.0000 C   0  0  0  0  0  0  0  0  0  0  0  0
    5.7792   -4.8000    0.0000 C   0  0  0  0  0  0  0  0  0  0  0  0
    3.7917   -4.5917    0.0000 O   0  0  0  0  0  0  0  0  0  0  0  0
    4.3167   -0.0917    0.0000 O   0  0  0  0  0  0  0  0  0  0  0  0
    5.4792   -5.3167    0.0000 C   0  0  0  0  0  0  0  0  0  0  0  0
    4.8375   -2.7917    0.0000 C   0  0  0  0  0  0  0  0  0  0  0  0
    3.8000   -2.7917    0.0000 C   0  0  0  0  0  0  0  0  0  0  0  0
    3.7917   -3.3917    0.0000 C   0  0  0  0  0  0  0  0  0  0  0  0
    4.8375   -3.3917    0.0000 C   0  0  0  0  0  0  0  0  0  0  0  0
  2  1  1  0
  3  1  1  0
  4  2  1  0
  5  6  1  0
  6  3  1  0
  7  8  1  0
  8 12  1  0
  9  7  1  0
 10  2  1  0
 11  1  2  0
 12 20  2  0
 13  7  2  0
 14  9  1  0
 15  8  2  0
 16  6  2  0
 17 13  1  0
 18 10  1  0
 19 10  2  0
 20 19  1  0
 21 18  2  0
  4  5  2  0
 21 12  1  0
 17 14  2  0
M  END

> <chembl_id>
CHEMBL415286

> <chembl_pref_name>
None

$$$$

     RDKit          2D

 22 24  0  0  0  0  0  0  0  0999 V2000
    3.8042   -1.6000    0.0000 C   0  0  0  0  0  0  0  0  0  0  0  0
    4.3167   -1.9000    0.0000 N   0  0  0  0  0  0  0  0  0  0  0  0
    3.8042   -1.0000    0.0000 N   0  0  0  0  0  0  0  0  0  0  0  0
    4.8417   -1.6000    0.0000 N   0  0  0  0  0  0  0  0  0  0  0  0
    4.8417   -1.0000    0.0000 C   0  0  0  0  0  0  0  0  0  0  0  0
    4.3167   -0.7000    0.0000 C   0  0  0  0  0  0  0  0  0  0  0  0
    4.3167   -2.5000    0.0000 C   0  0  0  0  0  0  0  0  0  0  0  0
    3.8000   -2.7917    0.0000 C   0  0  0  0  0  0  0  0  0  0  0  0
    4.3167   -3.6917    0.0000 C   0  0  0  0  0  0  0  0  0  0  0  0
    3.7917   -3.3917    0.0000 C   0  0  0  0  0  0  0  0  0  0  0  0
    3.2875   -1.8917    0.0000 O   0  0  0  0  0  0  0  0  0  0  0  0
    4.8375   -2.7917    0.0000 C   0  0  0  0  0  0  0  0  0  0  0  0
    4.3167   -4.2917    0.0000 C   0  0  0  0  0  0  0  0  0  0  0  0
    4.3167   -0.0917    0.0000 O   0  0  0  0  0  0  0  0  0  0  0  0
    4.8375   -3.3917    0.0000 C   0  0  0  0  0  0  0  0  0  0  0  0
    4.8375   -4.5917    0.0000 C   0  0  0  0  0  0  0  0  0  0  0  0
    3.2750   -3.6917    0.0000 C   0  0  0  0  0  0  0  0  0  0  0  0
    5.3500   -4.2917    0.0000 C   0  0  0  0  0  0  0  0  0  0  0  0
    4.8292   -5.1917    0.0000 C   0  0  0  0  0  0  0  0  0  0  0  0
    5.3542   -5.4917    0.0000 C   0  0  0  0  0  0  0  0  0  0  0  0
    5.8667   -4.5917    0.0000 C   0  0  0  0  0  0  0  0  0  0  0  0
    5.8667   -5.1917    0.0000 C   0  0  0  0  0  0  0  0  0  0  0  0
  2  1  1  0
  3  1  1  0
  4  2  1  0
  5  6  1  0
  6  3  1  0
  7  2  1  0
  8  7  2  0
  9 15  1  0
 10  8  1  0
 11  1  2  0
 12  7  1  0
 13  9  1  0
 14  6  2  0
 15 12  2  0
 16 13  1  0
 17 10  1  0
 18 16  1  0
 19 16  2  0
 20 19  1  0
 21 18  2  0
 22 20  2  0
  4  5  2  0
 10  9  2  0
 21 22  1  0
M  END

> <chembl_id>
CHEMBL6226

> <chembl_pref_name>
None

$$$$

     RDKit          2D

 25 27  0  0  0  0  0  0  0  0999 V2000
    2.5042    0.6000    0.0000 C   0  0  0  0  0  0  0  0  0  0  0  0
    3.0250    0.3000    0.0000 N   0  0  0  0  0  0  0  0  0  0  0  0
    2.5042    1.2000    0.0000 N   0  0  0  0  0  0  0  0  0  0  0  0
    3.5417    0.6000    0.0000 N   0  0  0  0  0  0  0  0  0  0  0  0
    3.0167   -1.4917    0.0000 C   0  0  0  0  0  0  0  0  0  0  0  0
    3.0250   -0.3000    0.0000 C   0  0  0  0  0  0  0  0  0  0  0  0
    2.5000   -1.1917    0.0000 C   0  0  0  0  0  0  0  0  0  0  0  0
    3.5417    1.2000    0.0000 C   0  0  0  0  0  0  0  0  0  0  0  0
    3.5375   -1.1917    0.0000 C   0  0  0  0  0  0  0  0  0  0  0  0
    3.0167   -2.0875    0.0000 C   0  0  0  0  0  0  0  0  0  0  0  0
    3.0250    1.5000    0.0000 C   0  0  0  0  0  0  0  0  0  0  0  0
    2.5000   -0.5917    0.0000 C   0  0  0  0  0  0  0  0  0  0  0  0
    3.5375   -0.5917    0.0000 C   0  0  0  0  0  0  0  0  0  0  0  0
    1.9875    0.3083    0.0000 O   0  0  0  0  0  0  0  0  0  0  0  0
    3.5375   -2.3792    0.0000 C   0  0  0  0  0  0  0  0  0  0  0  0
    2.5042   -2.3875    0.0000 O   0  0  0  0  0  0  0  0  0  0  0  0
    3.0250    2.1000    0.0000 O   0  0  0  0  0  0  0  0  0  0  0  0
    1.9750   -1.4917    0.0000 Cl  0  0  0  0  0  0  0  0  0  0  0  0
    3.5292   -2.9792    0.0000 C   0  0  0  0  0  0  0  0  0  0  0  0
    4.0500   -2.0792    0.0000 C   0  0  0  0  0  0  0  0  0  0  0  0
    4.5667   -2.9792    0.0000 C   0  0  0  0  0  0  0  0  0  0  0  0
    4.5667   -2.3792    0.0000 C   0  0  0  0  0  0  0  0  0  0  0  0
    4.0542   -3.2792    0.0000 C   0  0  0  0  0  0  0  0  0  0  0  0
    5.0875   -3.2750    0.0000 Cl  0  0  0  0  0  0  0  0  0  0  0  0
    4.0542   -1.4875    0.0000 C   0  0  0  0  0  0  0  0  0  0  0  0
  2  1  1  0
  3  1  1  0
  4  2  1  0
  5  9  1  0
  6  2  1  0
  7 12  1  0
  8 11  1  0
  9 13  2  0
 10  5  1  0
 11  3  1  0
 12  6  2  0
 13  6  1  0
 14  1  2  0
 15 10  1  0
 16 10  2  0
 17 11  2  0
 18  7  1  0
 19 15  2  0
 20 15  1  0
 21 22  1  0
 22 20  2  0
 23 19  1  0
 24 21  1  0
 25  9  1  0
  4  8  2  0
  5  7  2  0
 21 23  2  0
M  END

> <chembl_id>
CHEMBL6236

> <chembl_pref_name>
None

$$$$

     RDKit          2D

 22 24  0  0  0  0  0  0  0  0999 V2000
    2.0792   -1.9625    0.0000 C   0  0  0  0  0  0  0  0  0  0  0  0
    2.5917   -2.2625    0.0000 N   0  0  0  0  0  0  0  0  0  0  0  0
    2.0792   -1.3625    0.0000 N   0  0  0  0  0  0  0  0  0  0  0  0
    3.1125   -1.9625    0.0000 N   0  0  0  0  0  0  0  0  0  0  0  0
    3.1125   -1.3625    0.0000 C   0  0  0  0  0  0  0  0  0  0  0  0
    2.5917   -1.0625    0.0000 C   0  0  0  0  0  0  0  0  0  0  0  0
    2.5917   -2.8625    0.0000 C   0  0  0  0  0  0  0  0  0  0  0  0
    1.5417   -4.0542    0.0000 C   0  0  0  0  0  0  0  0  0  0  0  0
    2.0667   -3.7542    0.0000 C   0  0  0  0  0  0  0  0  0  0  0  0
    2.0667   -3.1542    0.0000 C   0  0  0  0  0  0  0  0  0  0  0  0
    1.5542   -2.2542    0.0000 O   0  0  0  0  0  0  0  0  0  0  0  0
    1.0292   -3.7542    0.0000 O   0  0  0  0  0  0  0  0  0  0  0  0
    2.5917   -0.4625    0.0000 O   0  0  0  0  0  0  0  0  0  0  0  0
    1.5417   -4.6542    0.0000 C   0  0  0  0  0  0  0  0  0  0  0  0
    3.1042   -3.1542    0.0000 C   0  0  0  0  0  0  0  0  0  0  0  0
    2.5875   -4.0542    0.0000 C   0  0  0  0  0  0  0  0  0  0  0  0
    3.1042   -3.7542    0.0000 C   0  0  0  0  0  0  0  0  0  0  0  0
    1.0250   -4.9542    0.0000 C   0  0  0  0  0  0  0  0  0  0  0  0
    2.0667   -4.9542    0.0000 C   0  0  0  0  0  0  0  0  0  0  0  0
    2.0667   -5.5500    0.0000 C   0  0  0  0  0  0  0  0  0  0  0  0
    1.0250   -5.5500    0.0000 C   0  0  0  0  0  0  0  0  0  0  0  0
    1.5417   -5.8542    0.0000 C   0  0  0  0  0  0  0  0  0  0  0  0
  2  1  1  0
  3  1  1  0
  4  2  1  0
  5  6  1  0
  6  3  1  0
  7  2  1  0
  8  9  1  0
  9 10  1  0
 10  7  2  0
 11  1  2  0
 12  8  2  0
 13  6  2  0
 14  8  1  0
 15  7  1  0
 16 17  1  0
 17 15  2  0
 18 14  2  0
 19 14  1  0
 20 19  2  0
 21 18  1  0
 22 20  1  0
  4  5  2  0
  9 16  2  0
 21 22  2  0
M  END

> <chembl_id>
CHEMBL6237

> <chembl_pref_name>
None

$$$$

     RDKit          2D

 25 27  0  0  0  0  0  0  0  0999 V2000
    5.2792   -2.0500    0.0000 C   0  0  0  0  0  0  0  0  0  0  0  0
    5.7917   -2.3500    0.0000 N   0  0  0  0  0  0  0  0  0  0  0  0
    5.2792   -1.4500    0.0000 N   0  0  0  0  0  0  0  0  0  0  0  0
    6.3125   -2.0500    0.0000 N   0  0  0  0  0  0  0  0  0  0  0  0
    5.7917   -2.9500    0.0000 C   0  0  0  0  0  0  0  0  0  0  0  0
    5.7875   -4.1417    0.0000 C   0  0  0  0  0  0  0  0  0  0  0  0
    6.3125   -1.4500    0.0000 C   0  0  0  0  0  0  0  0  0  0  0  0
    5.7917   -1.1500    0.0000 C   0  0  0  0  0  0  0  0  0  0  0  0
    5.2667   -3.8417    0.0000 C   0  0  0  0  0  0  0  0  0  0  0  0
    6.3042   -3.8417    0.0000 C   0  0  0  0  0  0  0  0  0  0  0  0
    5.7875   -4.7417    0.0000 C   0  0  0  0  0  0  0  0  0  0  0  0
    6.3042   -3.2417    0.0000 C   0  0  0  0  0  0  0  0  0  0  0  0
    5.2667   -3.2417    0.0000 C   0  0  0  0  0  0  0  0  0  0  0  0
    4.7542   -2.3417    0.0000 O   0  0  0  0  0  0  0  0  0  0  0  0
    6.3042   -5.0417    0.0000 C   0  0  0  0  0  0  0  0  0  0  0  0
    5.2667   -5.0417    0.0000 O   0  0  0  0  0  0  0  0  0  0  0  0
    5.7917   -0.5500    0.0000 O   0  0  0  0  0  0  0  0  0  0  0  0
    6.3042   -5.6417    0.0000 C   0  0  0  0  0  0  0  0  0  0  0  0
    6.8167   -4.7417    0.0000 C   0  0  0  0  0  0  0  0  0  0  0  0
    7.3417   -5.6417    0.0000 C   0  0  0  0  0  0  0  0  0  0  0  0
    7.3417   -5.0417    0.0000 C   0  0  0  0  0  0  0  0  0  0  0  0
    6.8250   -5.9417    0.0000 C   0  0  0  0  0  0  0  0  0  0  0  0
    7.8625   -5.9417    0.0000 Cl  0  0  0  0  0  0  0  0  0  0  0  0
    4.7417   -4.1417    0.0000 C   0  0  0  0  0  0  0  0  0  0  0  0
    6.8292   -4.1417    0.0000 C   0  0  0  0  0  0  0  0  0  0  0  0
  2  1  1  0
  3  1  1  0
  4  2  1  0
  5  2  1  0
  6  9  2  0
  7  8  1  0
  8  3  1  0
  9 13  1  0
 10 12  2  0
 11  6  1  0
 12  5  1  0
 13  5  2  0
 14  1  2  0
 15 11  1  0
 16 11  2  0
 17  8  2  0
 18 15  2  0
 19 15  1  0
 20 21  1  0
 21 19  2  0
 22 18  1  0
 23 20  1  0
 24  9  1  0
 25 10  1  0
  4  7  2  0
  6 10  1  0
 22 20  2  0
M  END

> <chembl_id>
CHEMBL6238

> <chembl_pref_name>
None

$$$$

     RDKit          2D

 25 27  0  0  0  0  0  0  0  0999 V2000
    5.2792   -2.0500    0.0000 C   0  0  0  0  0  0  0  0  0  0  0  0
    5.7917   -2.3500    0.0000 N   0  0  0  0  0  0  0  0  0  0  0  0
    5.2792   -1.4500    0.0000 N   0  0  0  0  0  0  0  0  0  0  0  0
    6.3125   -2.0500    0.0000 N   0  0  0  0  0  0  0  0  0  0  0  0
    5.7875   -4.7417    0.0000 C   0  0  0  0  0  0  0  0  0  0  0  0
    5.7875   -4.1417    0.0000 C   0  0  0  0  0  0  0  0  0  0  0  0
    6.3042   -5.0417    0.0000 C   0  0  0  0  0  0  0  0  0  0  0  0
    6.3125   -1.4500    0.0000 C   0  0  0  0  0  0  0  0  0  0  0  0
    5.7917   -1.1500    0.0000 C   0  0  0  0  0  0  0  0  0  0  0  0
    5.7917   -2.9500    0.0000 C   0  0  0  0  0  0  0  0  0  0  0  0
    5.2667   -3.8417    0.0000 C   0  0  0  0  0  0  0  0  0  0  0  0
    6.3042   -5.6417    0.0000 C   0  0  0  0  0  0  0  0  0  0  0  0
    5.2667   -3.2417    0.0000 C   0  0  0  0  0  0  0  0  0  0  0  0
    6.3042   -3.8417    0.0000 C   0  0  0  0  0  0  0  0  0  0  0  0
    6.8167   -4.7417    0.0000 C   0  0  0  0  0  0  0  0  0  0  0  0
    4.7542   -2.3417    0.0000 O   0  0  0  0  0  0  0  0  0  0  0  0
    5.2667   -5.0417    0.0000 O   0  0  0  0  0  0  0  0  0  0  0  0
    6.3042   -3.2417    0.0000 C   0  0  0  0  0  0  0  0  0  0  0  0
    6.8250   -5.9417    0.0000 C   0  0  0  0  0  0  0  0  0  0  0  0
    5.7917   -0.5500    0.0000 O   0  0  0  0  0  0  0  0  0  0  0  0
    7.3417   -5.6417    0.0000 C   0  0  0  0  0  0  0  0  0  0  0  0
    7.3417   -5.0417    0.0000 C   0  0  0  0  0  0  0  0  0  0  0  0
    7.8625   -5.9417    0.0000 Cl  0  0  0  0  0  0  0  0  0  0  0  0
    4.7417   -4.1417    0.0000 C   0  0  0  0  0  0  0  0  0  0  0  0
    5.7792   -5.9417    0.0000 C   0  0  0  0  0  0  0  0  0  0  0  0
  2  1  1  0
  3  1  1  0
  4  2  1  0
  5  6  1  0
  6 14  1  0
  7  5  1  0
  8  9  1  0
  9  3  1  0
 10  2  1  0
 11 13  1  0
 12  7  2  0
 13 10  2  0
 14 18  2  0
 15  7  1  0
 16  1  2  0
 17  5  2  0
 18 10  1  0
 19 12  1  0
 20  9  2  0
 21 22  1  0
 22 15  2  0
 23 21  1  0
 24 11  1  0
 25 12  1  0
  4  8  2  0
 11  6  2  0
 19 21  2  0
M  END

> <chembl_id>
CHEMBL266484

> <chembl_pref_name>
None

$$$$

     RDKit          2D

 18 19  0  0  0  0  0  0  0  0999 V2000
    4.2167   -1.6917    0.0000 C   0  0  0  0  0  0  0  0  0  0  0  0
    4.7292   -1.9917    0.0000 N   0  0  0  0  0  0  0  0  0  0  0  0
    4.2167   -1.0917    0.0000 N   0  0  0  0  0  0  0  0  0  0  0  0
    5.2500   -1.6917    0.0000 N   0  0  0  0  0  0  0  0  0  0  0  0
    5.2500   -1.0917    0.0000 C   0  0  0  0  0  0  0  0  0  0  0  0
    4.7292   -2.5917    0.0000 C   0  0  0  0  0  0  0  0  0  0  0  0
    4.7292   -0.7917    0.0000 C   0  0  0  0  0  0  0  0  0  0  0  0
    4.7250   -3.7875    0.0000 C   0  0  0  0  0  0  0  0  0  0  0  0
    4.2042   -3.4792    0.0000 C   0  0  0  0  0  0  0  0  0  0  0  0
    4.2042   -2.8875    0.0000 C   0  0  0  0  0  0  0  0  0  0  0  0
    5.2417   -3.4792    0.0000 C   0  0  0  0  0  0  0  0  0  0  0  0
    3.6917   -1.9875    0.0000 O   0  0  0  0  0  0  0  0  0  0  0  0
    4.7250   -4.3792    0.0000 C   0  0  0  0  0  0  0  0  0  0  0  0
    5.2417   -2.8875    0.0000 C   0  0  0  0  0  0  0  0  0  0  0  0
    4.7292   -0.1917    0.0000 O   0  0  0  0  0  0  0  0  0  0  0  0
    4.2042   -4.6875    0.0000 O   0  0  0  0  0  0  0  0  0  0  0  0
    3.6792   -3.7792    0.0000 Cl  0  0  0  0  0  0  0  0  0  0  0  0
    5.2417   -4.6792    0.0000 C   0  0  0  0  0  0  0  0  0  0  0  0
  2  1  1  0
  3  1  1  0
  4  2  1  0
  5  7  1  0
  6  2  1  0
  7  3  1  0
  8 11  1  0
  9 10  1  0
 10  6  2  0
 11 14  2  0
 12  1  2  0
 13  8  1  0
 14  6  1  0
 15  7  2  0
 16 13  2  0
 17  9  1  0
 18 13  1  0
  4  5  2  0
  9  8  2  0
M  END

> <chembl_id>
CHEMBL6239

> <chembl_pref_name>
None

$$$$

     RDKit          2D

 23 25  0  0  0  0  0  0  0  0999 V2000
    6.3417   -2.4250    0.0000 C   0  0  0  0  0  0  0  0  0  0  0  0
    6.8542   -2.7250    0.0000 N   0  0  0  0  0  0  0  0  0  0  0  0
    6.3417   -1.8250    0.0000 N   0  0  0  0  0  0  0  0  0  0  0  0
    7.3750   -2.4250    0.0000 N   0  0  0  0  0  0  0  0  0  0  0  0
    6.8500   -4.5167    0.0000 C   0  0  0  0  0  0  0  0  0  0  0  0
    7.3750   -1.8250    0.0000 C   0  0  0  0  0  0  0  0  0  0  0  0
    6.8542   -3.3250    0.0000 C   0  0  0  0  0  0  0  0  0  0  0  0
    6.8542   -1.5250    0.0000 C   0  0  0  0  0  0  0  0  0  0  0  0
    6.8500   -5.1167    0.0000 C   0  0  0  0  0  0  0  0  0  0  0  0
    6.3292   -4.2167    0.0000 C   0  0  0  0  0  0  0  0  0  0  0  0
    6.3292   -3.6167    0.0000 C   0  0  0  0  0  0  0  0  0  0  0  0
    7.3667   -4.2167    0.0000 C   0  0  0  0  0  0  0  0  0  0  0  0
    5.8167   -2.7167    0.0000 O   0  0  0  0  0  0  0  0  0  0  0  0
    7.3667   -3.6167    0.0000 C   0  0  0  0  0  0  0  0  0  0  0  0
    6.3292   -5.4167    0.0000 O   0  0  0  0  0  0  0  0  0  0  0  0
    7.3667   -5.4167    0.0000 C   0  0  0  0  0  0  0  0  0  0  0  0
    6.8542   -0.9250    0.0000 O   0  0  0  0  0  0  0  0  0  0  0  0
    5.8042   -4.5167    0.0000 Cl  0  0  0  0  0  0  0  0  0  0  0  0
    7.8792   -5.1167    0.0000 C   0  0  0  0  0  0  0  0  0  0  0  0
    7.3667   -6.0167    0.0000 C   0  0  0  0  0  0  0  0  0  0  0  0
    7.8875   -6.3167    0.0000 C   0  0  0  0  0  0  0  0  0  0  0  0
    8.4042   -5.4167    0.0000 C   0  0  0  0  0  0  0  0  0  0  0  0
    8.4042   -6.0167    0.0000 C   0  0  0  0  0  0  0  0  0  0  0  0
  2  1  1  0
  3  1  1  0
  4  2  1  0
  5 12  1  0
  6  8  1  0
  7  2  1  0
  8  3  1  0
  9  5  1  0
 10 11  1  0
 11  7  2  0
 12 14  2  0
 13  1  2  0
 14  7  1  0
 15  9  2  0
 16  9  1  0
 17  8  2  0
 18 10  1  0
 19 16  1  0
 20 16  2  0
 21 20  1  0
 22 19  2  0
 23 21  2  0
  4  6  2  0
 10  5  2  0
 22 23  1  0
M  END

> <chembl_id>
CHEMBL6240

> <chembl_pref_name>
None

$$$$

     RDKit          2D

 25 27  0  0  0  0  0  0  0  0999 V2000
    6.3417   -2.4250    0.0000 C   0  0  0  0  0  0  0  0  0  0  0  0
    6.8542   -2.7250    0.0000 N   0  0  0  0  0  0  0  0  0  0  0  0
    6.3417   -1.8250    0.0000 N   0  0  0  0  0  0  0  0  0  0  0  0
    7.3750   -2.4250    0.0000 N   0  0  0  0  0  0  0  0  0  0  0  0
    7.3667   -5.4167    0.0000 C   0  0  0  0  0  0  0  0  0  0  0  0
    7.3750   -1.8250    0.0000 C   0  0  0  0  0  0  0  0  0  0  0  0
    6.8542   -1.5250    0.0000 C   0  0  0  0  0  0  0  0  0  0  0  0
    6.8500   -5.1167    0.0000 C   0  0  0  0  0  0  0  0  0  0  0  0
    7.3667   -6.0167    0.0000 C   0  0  0  0  0  0  0  0  0  0  0  0
    7.8792   -5.1167    0.0000 C   0  0  0  0  0  0  0  0  0  0  0  0
    6.8542   -3.3250    0.0000 C   0  0  0  0  0  0  0  0  0  0  0  0
    5.8167   -2.7167    0.0000 O   0  0  0  0  0  0  0  0  0  0  0  0
    6.8500   -4.5167    0.0000 C   0  0  0  0  0  0  0  0  0  0  0  0
    8.4042   -5.4167    0.0000 C   0  0  0  0  0  0  0  0  0  0  0  0
    7.8875   -6.3167    0.0000 C   0  0  0  0  0  0  0  0  0  0  0  0
    6.3292   -5.4167    0.0000 O   0  0  0  0  0  0  0  0  0  0  0  0
    6.8542   -0.9250    0.0000 O   0  0  0  0  0  0  0  0  0  0  0  0
    8.4042   -6.0167    0.0000 C   0  0  0  0  0  0  0  0  0  0  0  0
    6.3292   -3.6167    0.0000 C   0  0  0  0  0  0  0  0  0  0  0  0
    7.3667   -3.6167    0.0000 C   0  0  0  0  0  0  0  0  0  0  0  0
    7.3667   -4.2167    0.0000 C   0  0  0  0  0  0  0  0  0  0  0  0
    6.3292   -4.2167    0.0000 C   0  0  0  0  0  0  0  0  0  0  0  0
    6.8417   -6.3167    0.0000 C   0  0  0  0  0  0  0  0  0  0  0  0
    7.8792   -4.5167    0.0000 C   0  0  0  0  0  0  0  0  0  0  0  0
    8.9250   -6.3167    0.0000 C   0  0  0  0  0  0  0  0  0  0  0  0
  2  1  1  0
  3  1  1  0
  4  2  1  0
  5  8  1  0
  6  7  1  0
  7  3  1  0
  8 13  1  0
  9  5  2  0
 10  5  1  0
 11  2  1  0
 12  1  2  0
 13 21  1  0
 14 10  2  0
 15  9  1  0
 16  8  2  0
 17  7  2  0
 18 14  1  0
 19 11  2  0
 20 11  1  0
 21 20  2  0
 22 19  1  0
 23  9  1  0
 24 10  1  0
 25 18  1  0
  4  6  2  0
 22 13  2  0
 15 18  2  0
M  END

> <chembl_id>
CHEMBL6243

> <chembl_pref_name>
None

$$$$

     RDKit          2D

 23 25  0  0  0  0  0  0  0  0999 V2000
    6.3417   -2.4250    0.0000 C   0  0  0  0  0  0  0  0  0  0  0  0
    6.8542   -2.7250    0.0000 N   0  0  0  0  0  0  0  0  0  0  0  0
    6.3417   -1.8250    0.0000 N   0  0  0  0  0  0  0  0  0  0  0  0
    7.3750   -2.4250    0.0000 N   0  0  0  0  0  0  0  0  0  0  0  0
    7.3750   -1.8250    0.0000 C   0  0  0  0  0  0  0  0  0  0  0  0
    6.8542   -1.5250    0.0000 C   0  0  0  0  0  0  0  0  0  0  0  0
    6.8500   -5.1167    0.0000 C   0  0  0  0  0  0  0  0  0  0  0  0
    6.8542   -3.3250    0.0000 C   0  0  0  0  0  0  0  0  0  0  0  0
    5.8167   -2.7167    0.0000 O   0  0  0  0  0  0  0  0  0  0  0  0
    6.8500   -4.5167    0.0000 C   0  0  0  0  0  0  0  0  0  0  0  0
    7.3667   -5.4167    0.0000 C   0  0  0  0  0  0  0  0  0  0  0  0
    6.8542   -0.9250    0.0000 O   0  0  0  0  0  0  0  0  0  0  0  0
    6.3292   -5.4167    0.0000 O   0  0  0  0  0  0  0  0  0  0  0  0
    7.3667   -3.6167    0.0000 C   0  0  0  0  0  0  0  0  0  0  0  0
    6.3292   -3.6167    0.0000 C   0  0  0  0  0  0  0  0  0  0  0  0
    6.3292   -4.2167    0.0000 C   0  0  0  0  0  0  0  0  0  0  0  0
    7.3667   -4.2167    0.0000 C   0  0  0  0  0  0  0  0  0  0  0  0
    7.3667   -6.0167    0.0000 C   0  0  0  0  0  0  0  0  0  0  0  0
    7.8792   -5.1167    0.0000 C   0  0  0  0  0  0  0  0  0  0  0  0
    8.4042   -6.0167    0.0000 C   0  0  0  0  0  0  0  0  0  0  0  0
    8.4042   -5.4167    0.0000 C   0  0  0  0  0  0  0  0  0  0  0  0
    7.8875   -6.3167    0.0000 C   0  0  0  0  0  0  0  0  0  0  0  0
    8.9250   -6.3167    0.0000 Cl  0  0  0  0  0  0  0  0  0  0  0  0
  2  1  1  0
  3  1  1  0
  4  2  1  0
  5  6  1  0
  6  3  1  0
  7 10  1  0
  8  2  1  0
  9  1  2  0
 10 16  2  0
 11  7  1  0
 12  6  2  0
 13  7  2  0
 14  8  1  0
 15  8  2  0
 16 15  1  0
 17 14  2  0
 18 11  2  0
 19 11  1  0
 20 21  1  0
 21 19  2  0
 22 18  1  0
 23 20  1  0
  4  5  2  0
 10 17  1  0
 22 20  2  0
M  END

> <chembl_id>
CHEMBL6272

> <chembl_pref_name>
None

$$$$

     RDKit          2D

 24 26  0  0  0  0  0  0  0  0999 V2000
    3.8042   -1.6000    0.0000 C   0  0  0  0  0  0  0  0  0  0  0  0
    4.3167   -1.9000    0.0000 N   0  0  0  0  0  0  0  0  0  0  0  0
    3.8042   -1.0000    0.0000 N   0  0  0  0  0  0  0  0  0  0  0  0
    4.8417   -1.6000    0.0000 N   0  0  0  0  0  0  0  0  0  0  0  0
    4.8417   -1.0000    0.0000 C   0  0  0  0  0  0  0  0  0  0  0  0
    4.3167   -0.7000    0.0000 C   0  0  0  0  0  0  0  0  0  0  0  0
    4.3167   -2.5000    0.0000 C   0  0  0  0  0  0  0  0  0  0  0  0
    4.3167   -3.6917    0.0000 C   0  0  0  0  0  0  0  0  0  0  0  0
    3.7917   -3.3917    0.0000 C   0  0  0  0  0  0  0  0  0  0  0  0
    4.3167   -4.2917    0.0000 C   0  0  0  0  0  0  0  0  0  0  0  0
    3.8000   -2.7917    0.0000 C   0  0  0  0  0  0  0  0  0  0  0  0
    4.8375   -3.3917    0.0000 C   0  0  0  0  0  0  0  0  0  0  0  0
    3.2875   -1.8917    0.0000 O   0  0  0  0  0  0  0  0  0  0  0  0
    4.8375   -4.5917    0.0000 C   0  0  0  0  0  0  0  0  0  0  0  0
    4.8375   -2.7917    0.0000 C   0  0  0  0  0  0  0  0  0  0  0  0
    4.3167   -0.0917    0.0000 O   0  0  0  0  0  0  0  0  0  0  0  0
    4.8292   -5.1917    0.0000 C   0  0  0  0  0  0  0  0  0  0  0  0
    5.3500   -4.2917    0.0000 C   0  0  0  0  0  0  0  0  0  0  0  0
    5.8667   -5.1917    0.0000 C   0  0  0  0  0  0  0  0  0  0  0  0
    3.7917   -4.5917    0.0000 O   0  0  0  0  0  0  0  0  0  0  0  0
    5.8667   -4.5917    0.0000 C   0  0  0  0  0  0  0  0  0  0  0  0
    5.3542   -5.4917    0.0000 C   0  0  0  0  0  0  0  0  0  0  0  0
    6.3917   -5.4917    0.0000 Cl  0  0  0  0  0  0  0  0  0  0  0  0
    3.2750   -3.6917    0.0000 C   0  0  0  0  0  0  0  0  0  0  0  0
  2  1  1  0
  3  1  1  0
  4  2  1  0
  5  6  1  0
  6  3  1  0
  7  2  1  0
  8 12  1  0
  9 11  1  0
 10  8  1  0
 11  7  2  0
 12 15  2  0
 13  1  2  0
 14 10  1  0
 15  7  1  0
 16  6  2  0
 17 14  2  0
 18 14  1  0
 19 21  1  0
 20 10  1  0
 21 18  2  0
 22 17  1  0
 23 19  1  0
 24  9  1  0
  4  5  2  0
  9  8  2  0
 22 19  2  0
M  END

> <chembl_id>
CHEMBL269496

> <chembl_pref_name>
None

$$$$

     RDKit          2D

 20 22  0  0  0  0  0  0  0  0999 V2000
    3.9875    0.7583    0.0000 N   0  0  0  0  0  0  0  0  0  0  0  0
    2.7167   -0.2792    0.0000 N   0  0  0  0  0  0  0  0  0  0  0  0
    0.6792   -1.0542    0.0000 N   0  0  0  0  0  0  0  0  0  0  0  0
    6.3042   -0.1250    0.0000 N   0  0  0  0  0  0  0  0  0  0  0  0
    4.6292    1.2833    0.0000 C   0  0  0  0  0  0  0  0  0  0  0  0
    5.4042    0.9875    0.0000 C   0  0  0  0  0  0  0  0  0  0  0  0
    2.0875   -0.8125    0.0000 C   0  0  0  0  0  0  0  0  0  0  0  0
    4.1250   -0.0417    0.0000 C   0  0  0  0  0  0  0  0  0  0  0  0
    3.4875   -0.5667    0.0000 C   0  0  0  0  0  0  0  0  0  0  0  0
    3.2167    1.0458    0.0000 C   0  0  0  0  0  0  0  0  0  0  0  0
    2.5792    0.5250    0.0000 C   0  0  0  0  0  0  0  0  0  0  0  0
    1.3042   -0.5250    0.0000 C   0  0  0  0  0  0  0  0  0  0  0  0
    5.5375    0.1708    0.0000 C   0  0  0  0  0  0  0  0  0  0  0  0
   -0.0958   -0.7750    0.0000 C   0  0  0  0  0  0  0  0  0  0  0  0
    6.9542    0.4083    0.0000 C   0  0  0  0  0  0  0  0  0  0  0  0
    6.0417    1.5125    0.0000 C   0  0  0  0  0  0  0  0  0  0  0  0
    1.1667    0.2875    0.0000 C   0  0  0  0  0  0  0  0  0  0  0  0
    6.8167    1.2208    0.0000 C   0  0  0  0  0  0  0  0  0  0  0  0
   -0.2458    0.0333    0.0000 C   0  0  0  0  0  0  0  0  0  0  0  0
    0.3917    0.5708    0.0000 C   0  0  0  0  0  0  0  0  0  0  0  0
  2 11  1  0
  3 12  1  0
  4 13  1  0
  5  1  1  0
  6  5  1  0
  7  2  1  0
  8  1  1  0
  9  8  1  0
 10  1  1  0
 11 10  1  0
 12  7  1  0
 13  6  2  0
 14  3  1  0
 15 18  1  0
 16  6  1  0
 17 12  1  0
 18 16  2  0
 19 20  1  0
 20 17  1  0
  2  9  1  0
  4 15  2  0
 14 19  1  0
M  END

> <chembl_id>
CHEMBL6283

> <chembl_pref_name>
None

$$$$

     RDKit          2D

 20 22  0  0  0  0  0  0  0  0999 V2000
    3.6417    0.5708    0.0000 N   0  0  0  0  0  0  0  0  0  0  0  0
    2.3792   -0.4667    0.0000 N   0  0  0  0  0  0  0  0  0  0  0  0
    0.3375   -1.2417    0.0000 N   0  0  0  0  0  0  0  0  0  0  0  0
    6.6167    0.2208    0.0000 N   0  0  0  0  0  0  0  0  0  0  0  0
    4.2917    1.0958    0.0000 C   0  0  0  0  0  0  0  0  0  0  0  0
    1.7417   -1.0000    0.0000 C   0  0  0  0  0  0  0  0  0  0  0  0
    2.2417    0.3375    0.0000 C   0  0  0  0  0  0  0  0  0  0  0  0
    3.7792   -0.2292    0.0000 C   0  0  0  0  0  0  0  0  0  0  0  0
    3.1417   -0.7542    0.0000 C   0  0  0  0  0  0  0  0  0  0  0  0
    2.8750    0.8583    0.0000 C   0  0  0  0  0  0  0  0  0  0  0  0
    0.9667   -0.7125    0.0000 C   0  0  0  0  0  0  0  0  0  0  0  0
    5.0625    0.8000    0.0000 C   0  0  0  0  0  0  0  0  0  0  0  0
   -0.4375   -0.9625    0.0000 C   0  0  0  0  0  0  0  0  0  0  0  0
    5.9667   -0.3125    0.0000 C   0  0  0  0  0  0  0  0  0  0  0  0
    6.4792    1.0333    0.0000 C   0  0  0  0  0  0  0  0  0  0  0  0
    5.1917   -0.0167    0.0000 C   0  0  0  0  0  0  0  0  0  0  0  0
    5.7042    1.3250    0.0000 C   0  0  0  0  0  0  0  0  0  0  0  0
    0.8250    0.1000    0.0000 C   0  0  0  0  0  0  0  0  0  0  0  0
   -0.5833   -0.1542    0.0000 C   0  0  0  0  0  0  0  0  0  0  0  0
    0.0542    0.3833    0.0000 C   0  0  0  0  0  0  0  0  0  0  0  0
  2  7  1  0
  3 11  1  0
  4 15  1  0
  5  1  1  0
  6  2  1  0
  7 10  1  0
  8  1  1  0
  9  8  1  0
 10  1  1  0
 11  6  1  0
 12  5  1  0
 13  3  1  0
 14 16  1  0
 15 17  2  0
 16 12  2  0
 17 12  1  0
 18 11  1  0
 19 20  1  0
 20 18  1  0
  2  9  1  0
 14  4  2  0
 13 19  1  0
M  END

> <chembl_id>
CHEMBL6284

> <chembl_pref_name>
None

$$$$

     RDKit          2D

 21 23  0  0  0  0  0  0  0  0999 V2000
    0.0875   -1.4292    0.0000 N   0  0  0  0  0  0  0  0  0  0  0  0
    2.1292   -0.6542    0.0000 N   0  0  0  0  0  0  0  0  0  0  0  0
    3.3917    0.3833    0.0000 N   0  0  0  0  0  0  0  0  0  0  0  0
    0.7167   -0.9000    0.0000 C   0  0  0  0  0  0  0  0  0  0  0  0
    1.4917   -1.1875    0.0000 C   0  0  0  0  0  0  0  0  0  0  0  0
    6.3667    0.0333    0.0000 N   0  0  0  0  0  0  0  0  0  0  0  0
    4.0417    0.9083    0.0000 C   0  0  0  0  0  0  0  0  0  0  0  0
    1.9917    0.1500    0.0000 C   0  0  0  0  0  0  0  0  0  0  0  0
    2.8917   -0.9417    0.0000 C   0  0  0  0  0  0  0  0  0  0  0  0
    3.5292   -0.4167    0.0000 C   0  0  0  0  0  0  0  0  0  0  0  0
    2.6250    0.6708    0.0000 C   0  0  0  0  0  0  0  0  0  0  0  0
    4.8125    0.6125    0.0000 C   0  0  0  0  0  0  0  0  0  0  0  0
    0.2292   -2.2417    0.0000 C   0  0  0  0  0  0  0  0  0  0  0  0
   -0.6875   -1.1500    0.0000 C   0  0  0  0  0  0  0  0  0  0  0  0
    6.2292    0.8458    0.0000 C   0  0  0  0  0  0  0  0  0  0  0  0
    5.7167   -0.5000    0.0000 C   0  0  0  0  0  0  0  0  0  0  0  0
    0.5750   -0.0875    0.0000 C   0  0  0  0  0  0  0  0  0  0  0  0
    4.9417   -0.2042    0.0000 C   0  0  0  0  0  0  0  0  0  0  0  0
    5.4542    1.1375    0.0000 C   0  0  0  0  0  0  0  0  0  0  0  0
   -0.8333   -0.3417    0.0000 C   0  0  0  0  0  0  0  0  0  0  0  0
   -0.1958    0.1958    0.0000 C   0  0  0  0  0  0  0  0  0  0  0  0
  2  5  1  0
  3 10  1  0
  4  1  1  0
  5  4  1  0
  6 15  1  0
  7  3  1  0
  8  2  1  0
  9  2  1  0
 10  9  1  0
 11  8  1  0
 12  7  1  0
 13  1  1  0
 14  1  1  0
 15 19  2  0
 16 18  1  0
 17  4  1  0
 18 12  2  0
 19 12  1  0
 20 14  1  0
 21 20  1  0
 17 21  1  0
 11  3  1  0
 16  6  2  0
M  END

> <chembl_id>
CHEMBL6277

> <chembl_pref_name>
None

$$$$

     RDKit          2D

 21 23  0  0  0  0  0  0  0  0999 V2000
    0.6792   -1.0542    0.0000 N   0  0  0  0  0  0  0  0  0  0  0  0
    2.7167   -0.2792    0.0000 N   0  0  0  0  0  0  0  0  0  0  0  0
    3.9875    0.7583    0.0000 N   0  0  0  0  0  0  0  0  0  0  0  0
    1.3042   -0.5250    0.0000 C   0  0  0  0  0  0  0  0  0  0  0  0
    2.0875   -0.8125    0.0000 C   0  0  0  0  0  0  0  0  0  0  0  0
    6.3042   -0.1250    0.0000 N   0  0  0  0  0  0  0  0  0  0  0  0
    4.6292    1.2833    0.0000 C   0  0  0  0  0  0  0  0  0  0  0  0
    5.4042    0.9875    0.0000 C   0  0  0  0  0  0  0  0  0  0  0  0
    3.4875   -0.5667    0.0000 C   0  0  0  0  0  0  0  0  0  0  0  0
    2.5792    0.5250    0.0000 C   0  0  0  0  0  0  0  0  0  0  0  0
    3.2167    1.0458    0.0000 C   0  0  0  0  0  0  0  0  0  0  0  0
    4.1250   -0.0417    0.0000 C   0  0  0  0  0  0  0  0  0  0  0  0
    0.8167   -1.8667    0.0000 C   0  0  0  0  0  0  0  0  0  0  0  0
    5.5375    0.1708    0.0000 C   0  0  0  0  0  0  0  0  0  0  0  0
   -0.0958   -0.7750    0.0000 C   0  0  0  0  0  0  0  0  0  0  0  0
    6.9542    0.4083    0.0000 C   0  0  0  0  0  0  0  0  0  0  0  0
    1.1667    0.2875    0.0000 C   0  0  0  0  0  0  0  0  0  0  0  0
    6.0417    1.5125    0.0000 C   0  0  0  0  0  0  0  0  0  0  0  0
    6.8167    1.2208    0.0000 C   0  0  0  0  0  0  0  0  0  0  0  0
   -0.2458    0.0333    0.0000 C   0  0  0  0  0  0  0  0  0  0  0  0
    0.3917    0.5708    0.0000 C   0  0  0  0  0  0  0  0  0  0  0  0
  2  5  1  0
  3 11  1  0
  4  1  1  0
  5  4  1  0
  6 14  1  0
  7  3  1  0
  8  7  1  0
  9  2  1  0
 10  2  1  0
 11 10  1  0
 12  9  1  0
 13  1  1  0
 14  8  2  0
 15  1  1  0
 16 19  1  0
 17  4  1  0
 18  8  1  0
 19 18  2  0
 20 15  1  0
 21 20  1  0
 17 21  1  0
 12  3  1  0
  6 16  2  0
M  END

> <chembl_id>
CHEMBL268830

> <chembl_pref_name>
None

$$$$

     RDKit          2D

 32 35  0  0  0  0  0  0  0  0999 V2000
   -2.6111    0.7486    0.0000 C   0  0  0  0  0  0  0  0  0  0  0  0
   -2.6111   -0.7486    0.0000 N   0  0  0  0  0  0  0  0  0  0  0  0
    0.0000   -0.7486    0.0000 C   0  0  0  0  0  0  0  0  0  0  0  0
   -1.2964   -1.4973    0.0000 C   0  0  0  0  0  0  0  0  0  0  0  0
   -1.2964    1.4973    0.0000 N   0  0  0  0  0  0  0  0  0  0  0  0
    0.0000    0.7486    0.0000 C   0  0  0  0  0  0  0  0  0  0  0  0
   -3.9086    1.5029    0.0000 N   0  0  0  0  0  0  0  0  0  0  0  0
   -6.5078    3.0010    0.0000 N   0  0  0  0  0  0  0  0  0  0  0  0
   -7.8065    3.7531    0.0000 C   0  0  0  0  0  0  0  0  0  0  0  0
    1.2964   -1.4973    0.0000 C   0  0  0  0  0  0  0  0  0  0  0  0
    1.2964    1.4973    0.0000 C   0  0  0  0  0  0  0  0  0  0  0  0
   -7.8054    5.2540    0.0000 C   0  0  0  0  0  0  0  0  0  0  0  0
    2.5929   -0.7486    0.0000 C   0  0  0  0  0  0  0  0  0  0  0  0
    2.5929    0.7486    0.0000 C   0  0  0  0  0  0  0  0  0  0  0  0
   -9.1042    6.0061    0.0000 C   0  0  0  0  0  0  0  0  0  0  0  0
   -3.9097    3.0028    0.0000 C   0  0  0  0  0  0  0  0  0  0  0  0
   -5.2071    0.7519    0.0000 C   0  0  0  0  0  0  0  0  0  0  0  0
   -6.5067    1.5010    0.0000 C   0  0  0  0  0  0  0  0  0  0  0  0
   -5.2093    3.7519    0.0000 C   0  0  0  0  0  0  0  0  0  0  0  0
   -8.8464    3.1542    0.0000 O   0  0  0  0  0  0  0  0  0  0  0  0
   -1.2928   -2.6973    0.0000 N   0  0  0  0  0  0  0  0  0  0  0  0
   -9.1031    7.5069    0.0000 C   0  0  0  0  0  0  0  0  0  0  0  0
   -9.0948   10.5070    0.0000 C   0  0  0  0  0  0  0  0  0  0  0  0
    3.8911   -1.5017    0.0000 O   0  0  0  0  0  0  0  0  0  0  0  0
    3.8911    1.5017    0.0000 O   0  0  0  0  0  0  0  0  0  0  0  0
   -9.0915   11.7070    0.0000 Br  0  0  0  0  0  0  0  0  0  0  0  0
  -10.4000    8.2606    0.0000 C   0  0  0  0  0  0  0  0  0  0  0  0
   -7.8020    8.2535    0.0000 C   0  0  0  0  0  0  0  0  0  0  0  0
   -7.7978    9.7535    0.0000 C   0  0  0  0  0  0  0  0  0  0  0  0
  -10.3959    9.7606    0.0000 C   0  0  0  0  0  0  0  0  0  0  0  0
    3.8894   -2.7017    0.0000 C   0  0  0  0  0  0  0  0  0  0  0  0
    3.8894    2.7017    0.0000 C   0  0  0  0  0  0  0  0  0  0  0  0
  1  2  2  0
  2  4  1  0
  3  4  2  0
  1  5  1  0
  3  6  1  0
  5  6  2  0
  1  7  1  0
  8  9  1  0
  3 10  1  0
  6 11  1  0
  9 12  1  0
 10 13  2  0
 11 14  2  0
 13 14  1  0
 12 15  2  0
  7 16  1  0
  7 17  1  0
  8 18  1  0
 17 18  1  0
  8 19  1  0
 16 19  1  0
  9 20  2  0
  4 21  1  0
 15 22  1  0
 13 24  1  0
 14 25  1  0
 23 26  1  0
 22 27  2  0
 22 28  1  0
 23 29  1  0
 28 29  2  0
 23 30  2  0
 27 30  1  0
 24 31  1  0
 25 32  1  0
M  END

> <chembl_id>
CHEMBL6290

> <chembl_pref_name>
None

$$$$

     RDKit          2D

 19 20  0  0  0  0  0  0  0  0999 V2000
    4.2167   -1.6917    0.0000 C   0  0  0  0  0  0  0  0  0  0  0  0
    4.7292   -1.9917    0.0000 N   0  0  0  0  0  0  0  0  0  0  0  0
    4.2167   -1.0917    0.0000 N   0  0  0  0  0  0  0  0  0  0  0  0
    5.2500   -1.6917    0.0000 N   0  0  0  0  0  0  0  0  0  0  0  0
    5.2500   -1.0917    0.0000 C   0  0  0  0  0  0  0  0  0  0  0  0
    4.7292   -0.7917    0.0000 C   0  0  0  0  0  0  0  0  0  0  0  0
    4.7292   -2.5917    0.0000 C   0  0  0  0  0  0  0  0  0  0  0  0
    3.6917   -1.9875    0.0000 O   0  0  0  0  0  0  0  0  0  0  0  0
    4.7250   -3.7875    0.0000 C   0  0  0  0  0  0  0  0  0  0  0  0
    4.7250   -4.3792    0.0000 C   0  0  0  0  0  0  0  0  0  0  0  0
    4.7292   -0.1917    0.0000 O   0  0  0  0  0  0  0  0  0  0  0  0
    4.2042   -2.8875    0.0000 C   0  0  0  0  0  0  0  0  0  0  0  0
    5.2417   -2.8875    0.0000 C   0  0  0  0  0  0  0  0  0  0  0  0
    4.2042   -4.6875    0.0000 O   0  0  0  0  0  0  0  0  0  0  0  0
    5.2417   -3.4792    0.0000 C   0  0  0  0  0  0  0  0  0  0  0  0
    4.2042   -3.4792    0.0000 C   0  0  0  0  0  0  0  0  0  0  0  0
    5.2417   -4.6792    0.0000 C   0  0  0  0  0  0  0  0  0  0  0  0
    5.2417   -5.2792    0.0000 C   0  0  0  0  0  0  0  0  0  0  0  0
    5.7667   -5.5792    0.0000 C   0  0  0  0  0  0  0  0  0  0  0  0
  2  1  1  0
  3  1  1  0
  4  2  1  0
  5  6  1  0
  6  3  1  0
  7  2  1  0
  8  1  2  0
  9 15  1  0
 10  9  1  0
 11  6  2  0
 12  7  2  0
 13  7  1  0
 14 10  2  0
 15 13  2  0
 16 12  1  0
 17 10  1  0
 18 17  1  0
 19 18  1  0
  4  5  2  0
 16  9  2  0
M  END

> <chembl_id>
CHEMBL6308

> <chembl_pref_name>
None

$$$$

     RDKit          2D

 17 18  0  0  0  0  0  0  0  0999 V2000
    4.2167   -1.6917    0.0000 C   0  0  0  0  0  0  0  0  0  0  0  0
    4.7292   -1.9917    0.0000 N   0  0  0  0  0  0  0  0  0  0  0  0
    4.2167   -1.0917    0.0000 N   0  0  0  0  0  0  0  0  0  0  0  0
    5.2500   -1.6917    0.0000 N   0  0  0  0  0  0  0  0  0  0  0  0
    5.2500   -1.0917    0.0000 C   0  0  0  0  0  0  0  0  0  0  0  0
    4.7292   -0.7917    0.0000 C   0  0  0  0  0  0  0  0  0  0  0  0
    4.7292   -2.5917    0.0000 C   0  0  0  0  0  0  0  0  0  0  0  0
    3.6917   -1.9875    0.0000 O   0  0  0  0  0  0  0  0  0  0  0  0
    4.7250   -3.7875    0.0000 C   0  0  0  0  0  0  0  0  0  0  0  0
    4.7250   -4.3792    0.0000 C   0  0  0  0  0  0  0  0  0  0  0  0
    4.7292   -0.1917    0.0000 O   0  0  0  0  0  0  0  0  0  0  0  0
    4.2042   -2.8875    0.0000 C   0  0  0  0  0  0  0  0  0  0  0  0
    5.2417   -2.8875    0.0000 C   0  0  0  0  0  0  0  0  0  0  0  0
    4.2042   -4.6875    0.0000 O   0  0  0  0  0  0  0  0  0  0  0  0
    5.2417   -3.4792    0.0000 C   0  0  0  0  0  0  0  0  0  0  0  0
    4.2042   -3.4792    0.0000 C   0  0  0  0  0  0  0  0  0  0  0  0
    5.2417   -4.6792    0.0000 C   0  0  0  0  0  0  0  0  0  0  0  0
  2  1  1  0
  3  1  1  0
  4  2  1  0
  5  6  1  0
  6  3  1  0
  7  2  1  0
  8  1  2  0
  9 15  1  0
 10  9  1  0
 11  6  2  0
 12  7  2  0
 13  7  1  0
 14 10  2  0
 15 13  2  0
 16 12  1  0
 17 10  1  0
  4  5  2  0
 16  9  2  0
M  END

> <chembl_id>
CHEMBL268150

> <chembl_pref_name>
None

$$$$

     RDKit          2D

 30 34  0  0  0  0  0  0  0  0999 V2000
    4.1792   -0.1542    0.0000 C   0  0  0  0  0  0  0  0  0  0  0  0
    4.6917   -0.4625    0.0000 N   0  0  0  0  0  0  0  0  0  0  0  0
    4.1792    0.4375    0.0000 N   0  0  0  0  0  0  0  0  0  0  0  0
    5.2167   -0.1542    0.0000 N   0  0  0  0  0  0  0  0  0  0  0  0
    5.2125   -3.7500    0.0000 C   0  0  0  0  0  0  0  0  0  0  0  0
    5.7292   -4.0417    0.0000 C   0  0  0  0  0  0  0  0  0  0  0  0
    5.7417   -4.6417    0.0000 C   0  0  0  0  0  0  0  0  0  0  0  0
    4.6917   -4.6542    0.0000 O   0  0  0  0  0  0  0  0  0  0  0  0
    4.6917   -4.0542    0.0000 C   0  0  0  0  0  0  0  0  0  0  0  0
    5.2167   -4.9542    0.0000 C   0  0  0  0  0  0  0  0  0  0  0  0
    5.2167    0.4375    0.0000 C   0  0  0  0  0  0  0  0  0  0  0  0
    4.6917    0.7375    0.0000 C   0  0  0  0  0  0  0  0  0  0  0  0
    5.2042   -3.1542    0.0000 C   0  0  0  0  0  0  0  0  0  0  0  0
    4.6917   -2.8542    0.0000 C   0  0  0  0  0  0  0  0  0  0  0  0
    4.6917   -1.0625    0.0000 C   0  0  0  0  0  0  0  0  0  0  0  0
    3.6625   -0.4542    0.0000 O   0  0  0  0  0  0  0  0  0  0  0  0
    6.2667   -4.9417    0.0000 C   0  0  0  0  0  0  0  0  0  0  0  0
    6.2542   -3.7417    0.0000 O   0  0  0  0  0  0  0  0  0  0  0  0
    4.6917   -2.2542    0.0000 C   0  0  0  0  0  0  0  0  0  0  0  0
    4.1667   -3.7542    0.0000 C   0  0  0  0  0  0  0  0  0  0  0  0
    4.6917    1.3375    0.0000 O   0  0  0  0  0  0  0  0  0  0  0  0
    5.2250   -5.5542    0.0000 C   0  0  0  0  0  0  0  0  0  0  0  0
    4.1667   -3.1542    0.0000 C   0  0  0  0  0  0  0  0  0  0  0  0
    4.1750   -1.3542    0.0000 C   0  0  0  0  0  0  0  0  0  0  0  0
    5.2125   -1.3542    0.0000 C   0  0  0  0  0  0  0  0  0  0  0  0
    5.2125   -1.9542    0.0000 C   0  0  0  0  0  0  0  0  0  0  0  0
    4.1667   -1.9542    0.0000 C   0  0  0  0  0  0  0  0  0  0  0  0
    6.2667   -5.5417    0.0000 C   0  0  0  0  0  0  0  0  0  0  0  0
    5.7500   -5.8542    0.0000 C   0  0  0  0  0  0  0  0  0  0  0  0
    6.7917   -5.8417    0.0000 Cl  0  0  0  0  0  0  0  0  0  0  0  0
  2  1  1  0
  3  1  1  0
  4  2  1  0
  5 13  2  0
  6  5  1  0
  7  6  1  0
  8  9  1  0
  9 20  2  0
 10  8  1  0
 11 12  1  0
 12  3  1  0
 13 14  1  0
 14 19  1  0
 15  2  1  0
 16  1  2  0
 17  7  1  0
 18  6  2  0
 19 26  1  0
 20 23  1  0
 21 12  2  0
 22 10  1  0
 23 14  2  0
 24 15  2  0
 25 15  1  0
 26 25  2  0
 27 24  1  0
 28 17  2  0
 29 22  2  0
 30 28  1  0
  4 11  2  0
 27 19  2  0
  5  9  1  0
  7 10  2  0
 29 28  1  0
M  END

> <chembl_id>
CHEMBL6293

> <chembl_pref_name>
None

$$$$

     RDKit          2D

 33 36  0  0  0  0  0  0  0  0999 V2000
    1.9667   -1.4250    0.0000 C   0  0  0  0  0  0  0  0  0  0  0  0
    1.9750   -2.2542    0.0000 N   0  0  0  0  0  0  0  0  0  0  0  0
    0.5417   -2.2542    0.0000 C   0  0  0  0  0  0  0  0  0  0  0  0
    1.2625   -2.6667    0.0000 C   0  0  0  0  0  0  0  0  0  0  0  0
    1.2542   -1.0167    0.0000 N   0  0  0  0  0  0  0  0  0  0  0  0
    0.5417   -1.4292    0.0000 C   0  0  0  0  0  0  0  0  0  0  0  0
    4.8250    0.2333    0.0000 C   0  0  0  0  0  0  0  0  0  0  0  0
    2.6792   -1.0125    0.0000 N   0  0  0  0  0  0  0  0  0  0  0  0
    4.1042   -0.1792    0.0000 N   0  0  0  0  0  0  0  0  0  0  0  0
   -0.1708   -2.6750    0.0000 C   0  0  0  0  0  0  0  0  0  0  0  0
    5.5375   -0.1792    0.0000 C   0  0  0  0  0  0  0  0  0  0  0  0
   -0.1708   -1.0167    0.0000 C   0  0  0  0  0  0  0  0  0  0  0  0
    8.3917   -1.8167    0.0000 C   0  0  0  0  0  0  0  0  0  0  0  0
   -0.8833   -2.2625    0.0000 C   0  0  0  0  0  0  0  0  0  0  0  0
   -0.8833   -1.4375    0.0000 C   0  0  0  0  0  0  0  0  0  0  0  0
    6.2500    0.2375    0.0000 C   0  0  0  0  0  0  0  0  0  0  0  0
    6.9625   -0.1667    0.0000 C   0  0  0  0  0  0  0  0  0  0  0  0
    7.6792   -1.4042    0.0000 N   0  0  0  0  0  0  0  0  0  0  0  0
    6.9667   -1.0000    0.0000 C   0  0  0  0  0  0  0  0  0  0  0  0
    9.1125   -2.2292    0.0000 S   0  0  0  0  0  0  0  0  0  0  0  0
    3.4000   -1.4167    0.0000 C   0  0  0  0  0  0  0  0  0  0  0  0
    2.6792   -0.1875    0.0000 C   0  0  0  0  0  0  0  0  0  0  0  0
    3.3917    0.2333    0.0000 C   0  0  0  0  0  0  0  0  0  0  0  0
    4.1125   -1.0042    0.0000 C   0  0  0  0  0  0  0  0  0  0  0  0
    4.8167    1.0583    0.0000 O   0  0  0  0  0  0  0  0  0  0  0  0
    5.5375   -1.0042    0.0000 C   0  0  0  0  0  0  0  0  0  0  0  0
    1.2542   -3.4917    0.0000 N   0  0  0  0  0  0  0  0  0  0  0  0
    6.2542   -1.4125    0.0000 C   0  0  0  0  0  0  0  0  0  0  0  0
    7.6750    0.2458    0.0000 I   0  0  0  0  0  0  0  0  0  0  0  0
   -1.6000   -2.6750    0.0000 O   0  0  0  0  0  0  0  0  0  0  0  0
   -1.5958   -1.0250    0.0000 O   0  0  0  0  0  0  0  0  0  0  0  0
   -2.3125   -1.4375    0.0000 C   0  0  0  0  0  0  0  0  0  0  0  0
   -2.3125   -2.2625    0.0000 C   0  0  0  0  0  0  0  0  0  0  0  0
  2  1  1  0
  3  6  1  0
  4  2  2  0
  5  1  2  0
  6  5  1  0
  7  9  1  0
  8  1  1  0
  9 23  1  0
 10  3  2  0
 11  7  1  0
 12  6  2  0
 13 18  2  0
 14 15  2  0
 15 12  1  0
 16 11  1  0
 17 16  2  0
 18 19  1  0
 19 28  2  0
 20 13  2  0
 21  8  1  0
 22  8  1  0
 23 22  1  0
 24 21  1  0
 25  7  2  0
 26 11  2  0
 27  4  1  0
 28 26  1  0
 29 17  1  0
 30 14  1  0
 31 15  1  0
 32 31  1  0
 33 30  1  0
  3  4  1  0
 24  9  1  0
 10 14  1  0
 17 19  1  0
M  END

> <chembl_id>
CHEMBL447227

> <chembl_pref_name>
None

$$$$

     RDKit          2D

 36 40  0  0  0  0  0  0  0  0999 V2000
    1.9667   -1.4250    0.0000 C   0  0  0  0  0  0  0  0  0  0  0  0
    1.9750   -2.2542    0.0000 N   0  0  0  0  0  0  0  0  0  0  0  0
    9.8167    1.4833    0.0000 N   0  0  0  0  0  0  0  0  0  0  0  0
    0.5417   -2.2542    0.0000 C   0  0  0  0  0  0  0  0  0  0  0  0
    9.1042    1.0708    0.0000 C   0  0  0  0  0  0  0  0  0  0  0  0
    1.2625   -2.6667    0.0000 C   0  0  0  0  0  0  0  0  0  0  0  0
    1.2542   -1.0167    0.0000 N   0  0  0  0  0  0  0  0  0  0  0  0
    4.8250    0.2333    0.0000 C   0  0  0  0  0  0  0  0  0  0  0  0
    0.5417   -1.4292    0.0000 C   0  0  0  0  0  0  0  0  0  0  0  0
    2.6792   -1.0125    0.0000 N   0  0  0  0  0  0  0  0  0  0  0  0
    4.1042   -0.1792    0.0000 N   0  0  0  0  0  0  0  0  0  0  0  0
   -0.1708   -2.6750    0.0000 C   0  0  0  0  0  0  0  0  0  0  0  0
   -0.1708   -1.0167    0.0000 C   0  0  0  0  0  0  0  0  0  0  0  0
   10.6417    1.4833    0.0000 C   0  0  0  0  0  0  0  0  0  0  0  0
   10.2292    2.1958    0.0000 C   0  0  0  0  0  0  0  0  0  0  0  0
    8.3917    1.4750    0.0000 N   0  0  0  0  0  0  0  0  0  0  0  0
    5.5375   -0.1792    0.0000 N   0  0  0  0  0  0  0  0  0  0  0  0
   -0.8833   -2.2625    0.0000 C   0  0  0  0  0  0  0  0  0  0  0  0
   -0.8833   -1.4375    0.0000 C   0  0  0  0  0  0  0  0  0  0  0  0
    9.1125    0.2458    0.0000 S   0  0  0  0  0  0  0  0  0  0  0  0
    4.8167    1.0583    0.0000 S   0  0  0  0  0  0  0  0  0  0  0  0
    2.6792   -0.1875    0.0000 C   0  0  0  0  0  0  0  0  0  0  0  0
    3.4000   -1.4167    0.0000 C   0  0  0  0  0  0  0  0  0  0  0  0
    4.1125   -1.0042    0.0000 C   0  0  0  0  0  0  0  0  0  0  0  0
    3.3917    0.2333    0.0000 C   0  0  0  0  0  0  0  0  0  0  0  0
    1.2542   -3.4917    0.0000 N   0  0  0  0  0  0  0  0  0  0  0  0
    6.2542    0.2333    0.0000 C   0  0  0  0  0  0  0  0  0  0  0  0
    7.6792    1.0583    0.0000 C   0  0  0  0  0  0  0  0  0  0  0  0
   -1.6000   -2.6750    0.0000 O   0  0  0  0  0  0  0  0  0  0  0  0
   -1.5958   -1.0250    0.0000 O   0  0  0  0  0  0  0  0  0  0  0  0
    6.9542    1.4708    0.0000 C   0  0  0  0  0  0  0  0  0  0  0  0
    6.2500    1.0583    0.0000 C   0  0  0  0  0  0  0  0  0  0  0  0
    7.6792    0.2333    0.0000 C   0  0  0  0  0  0  0  0  0  0  0  0
    6.9667   -0.1792    0.0000 C   0  0  0  0  0  0  0  0  0  0  0  0
   -2.3125   -2.2625    0.0000 C   0  0  0  0  0  0  0  0  0  0  0  0
   -2.3125   -1.4375    0.0000 C   0  0  0  0  0  0  0  0  0  0  0  0
  2  1  2  0
  3  5  1  0
  4  9  1  0
  5 16  1  0
  6  2  1  0
  7  1  1  0
  8 11  1  0
  9  7  2  0
 10  1  1  0
 11 24  1  0
 12  4  1  0
 13  9  1  0
 14  3  1  0
 15  3  1  0
 16 28  1  0
 17  8  2  0
 18 19  1  0
 19 13  2  0
 20  5  2  0
 21  8  1  0
 22 10  1  0
 23 10  1  0
 24 23  1  0
 25 22  1  0
 26  6  1  0
 27 17  1  0
 28 33  1  0
 29 18  1  0
 30 19  1  0
 31 32  1  0
 32 27  2  0
 33 34  2  0
 34 27  1  0
 35 29  1  0
 36 30  1  0
  6  4  2  0
 25 11  1  0
 18 12  2  0
 31 28  2  0
 14 15  1  0
M  END

> <chembl_id>
CHEMBL6302

> <chembl_pref_name>
None

$$$$

     RDKit          2D

 20 22  0  0  1  0  0  0  0  0999 V2000
    2.3125   -3.8667    0.0000 N   0  0  0  0  0  0  0  0  0  0  0  0
    4.3667   -3.0792    0.0000 N   0  0  0  0  0  0  0  0  0  0  0  0
    5.6042   -1.9792    0.0000 N   0  0  0  0  0  0  0  0  0  0  0  0
    2.9792   -3.3792    0.0000 C   0  0  0  0  0  0  0  0  0  0  0  0
    3.7667   -3.6292    0.0000 C   0  0  0  0  0  0  0  0  0  0  0  0
    8.5667   -2.2042    0.0000 N   0  0  0  0  0  0  0  0  0  0  0  0
    6.2167   -1.4292    0.0000 C   0  0  0  0  0  0  0  0  0  0  0  0
    5.1625   -3.3417    0.0000 C   0  0  0  0  0  0  0  0  0  0  0  0
    4.2042   -2.2792    0.0000 C   0  0  0  0  0  0  0  0  0  0  0  0
    4.8167   -1.7292    0.0000 C   0  0  0  0  0  0  0  0  0  0  0  0
    5.7750   -2.7917    0.0000 C   0  0  0  0  0  0  0  0  0  0  0  0
    1.6417   -3.3792    0.0000 C   0  0  0  0  0  0  0  0  0  0  0  0
    7.0042   -1.6917    0.0000 C   0  0  0  0  0  0  0  0  0  0  0  0
    2.3042   -4.6917    0.0000 C   0  0  0  0  0  0  0  0  0  0  0  0
    1.9000   -2.5917    0.0000 C   0  0  0  0  0  0  0  0  0  0  0  0
    2.7250   -2.5917    0.0000 C   0  0  0  0  0  0  0  0  0  0  0  0
    7.9500   -2.7542    0.0000 C   0  0  0  0  0  0  0  0  0  0  0  0
    8.3917   -1.3917    0.0000 C   0  0  0  0  0  0  0  0  0  0  0  0
    7.1667   -2.4917    0.0000 C   0  0  0  0  0  0  0  0  0  0  0  0
    7.6125   -1.1417    0.0000 C   0  0  0  0  0  0  0  0  0  0  0  0
  2  5  1  0
  3 10  1  0
  4  1  1  0
  4  5  1  1
  6 18  1  0
  7  3  1  0
  8  2  1  0
  9  2  1  0
 10  9  1  0
 11  8  1  0
 12  1  1  0
 13  7  1  0
 14  1  1  0
 15 12  1  0
 16  4  1  0
 17 19  1  0
 18 20  2  0
 19 13  2  0
 20 13  1  0
 15 16  1  0
 11  3  1  0
 17  6  2  0
M  END

> <chembl_id>
CHEMBL268831

> <chembl_pref_name>
None

$$$$

     RDKit          2D

 20 22  0  0  1  0  0  0  0  0999 V2000
    2.3167   -3.8667    0.0000 N   0  0  0  0  0  0  0  0  0  0  0  0
    4.3792   -3.0792    0.0000 N   0  0  0  0  0  0  0  0  0  0  0  0
    5.6125   -1.9792    0.0000 N   0  0  0  0  0  0  0  0  0  0  0  0
    2.9875   -3.3792    0.0000 C   0  0  0  0  0  0  0  0  0  0  0  0
    3.7750   -3.6292    0.0000 C   0  0  0  0  0  0  0  0  0  0  0  0
    7.9542   -2.7542    0.0000 N   0  0  0  0  0  0  0  0  0  0  0  0
    6.2250   -1.4292    0.0000 C   0  0  0  0  0  0  0  0  0  0  0  0
    7.0125   -1.6917    0.0000 C   0  0  0  0  0  0  0  0  0  0  0  0
    4.2125   -2.2792    0.0000 C   0  0  0  0  0  0  0  0  0  0  0  0
    5.1667   -3.3417    0.0000 C   0  0  0  0  0  0  0  0  0  0  0  0
    5.7792   -2.7917    0.0000 C   0  0  0  0  0  0  0  0  0  0  0  0
    4.8250   -1.7292    0.0000 C   0  0  0  0  0  0  0  0  0  0  0  0
    1.6500   -3.3792    0.0000 C   0  0  0  0  0  0  0  0  0  0  0  0
    2.3125   -4.6917    0.0000 C   0  0  0  0  0  0  0  0  0  0  0  0
    7.1750   -2.4917    0.0000 C   0  0  0  0  0  0  0  0  0  0  0  0
    1.9042   -2.5917    0.0000 C   0  0  0  0  0  0  0  0  0  0  0  0
    2.7292   -2.5917    0.0000 C   0  0  0  0  0  0  0  0  0  0  0  0
    8.5750   -2.2042    0.0000 C   0  0  0  0  0  0  0  0  0  0  0  0
    7.6167   -1.1417    0.0000 C   0  0  0  0  0  0  0  0  0  0  0  0
    8.4000   -1.3917    0.0000 C   0  0  0  0  0  0  0  0  0  0  0  0
  2  5  1  0
  3 11  1  0
  4  1  1  0
  4  5  1  1
  6 15  1  0
  7  3  1  0
  8  7  1  0
  9  2  1  0
 10  2  1  0
 11 10  1  0
 12  9  1  0
 13  1  1  0
 14  1  1  0
 15  8  2  0
 16 13  1  0
 17  4  1  0
 18 20  1  0
 19  8  1  0
 20 19  2  0
 16 17  1  0
  3 12  1  0
  6 18  2  0
M  END

> <chembl_id>
CHEMBL267915

> <chembl_pref_name>
None

$$$$

     RDKit          2D

 28 31  0  0  0  0  0  0  0  0999 V2000
    0.9375   -1.9792    0.0000 C   0  0  0  0  0  0  0  0  0  0  0  0
    0.9292   -2.6917    0.0000 N   0  0  0  0  0  0  0  0  0  0  0  0
   -0.3208   -2.6750    0.0000 C   0  0  0  0  0  0  0  0  0  0  0  0
    0.2875   -3.0417    0.0000 C   0  0  0  0  0  0  0  0  0  0  0  0
    0.3042   -1.6167    0.0000 N   0  0  0  0  0  0  0  0  0  0  0  0
   -0.3208   -1.9625    0.0000 C   0  0  0  0  0  0  0  0  0  0  0  0
    3.3917   -0.5917    0.0000 C   0  0  0  0  0  0  0  0  0  0  0  0
    1.5542   -1.6417    0.0000 N   0  0  0  0  0  0  0  0  0  0  0  0
    2.7792   -0.9542    0.0000 N   0  0  0  0  0  0  0  0  0  0  0  0
   -0.9500   -3.0167    0.0000 C   0  0  0  0  0  0  0  0  0  0  0  0
    4.0125   -0.9292    0.0000 C   0  0  0  0  0  0  0  0  0  0  0  0
   -0.9250   -1.5917    0.0000 C   0  0  0  0  0  0  0  0  0  0  0  0
   -1.5833   -2.6542    0.0000 C   0  0  0  0  0  0  0  0  0  0  0  0
   -1.5708   -1.9417    0.0000 C   0  0  0  0  0  0  0  0  0  0  0  0
    4.2417   -1.5917    0.0000 O   0  0  0  0  0  0  0  0  0  0  0  0
    1.5417   -0.9500    0.0000 C   0  0  0  0  0  0  0  0  0  0  0  0
    2.1667   -2.0000    0.0000 C   0  0  0  0  0  0  0  0  0  0  0  0
    2.1667   -0.5792    0.0000 C   0  0  0  0  0  0  0  0  0  0  0  0
    2.7792   -1.6375    0.0000 C   0  0  0  0  0  0  0  0  0  0  0  0
    3.4042    0.0875    0.0000 O   0  0  0  0  0  0  0  0  0  0  0  0
    4.5792   -0.5125    0.0000 C   0  0  0  0  0  0  0  0  0  0  0  0
    4.9417   -1.5917    0.0000 C   0  0  0  0  0  0  0  0  0  0  0  0
    5.1542   -0.9292    0.0000 C   0  0  0  0  0  0  0  0  0  0  0  0
    0.2667   -3.7542    0.0000 N   0  0  0  0  0  0  0  0  0  0  0  0
   -2.2000   -2.9917    0.0000 O   0  0  0  0  0  0  0  0  0  0  0  0
   -2.1833   -1.5792    0.0000 O   0  0  0  0  0  0  0  0  0  0  0  0
   -2.7958   -1.9125    0.0000 C   0  0  0  0  0  0  0  0  0  0  0  0
   -2.7958   -2.6542    0.0000 C   0  0  0  0  0  0  0  0  0  0  0  0
  2  1  2  0
  3  6  1  0
  4  2  1  0
  5  1  1  0
  6  5  2  0
  7  9  1  0
  8  1  1  0
  9 19  1  0
 10  3  1  0
 11  7  1  0
 12  6  1  0
 13 14  1  0
 14 12  2  0
 15 11  1  0
 16  8  1  0
 17  8  1  0
 18 16  1  0
 19 17  1  0
 20  7  2  0
 21 11  2  0
 22 15  1  0
 23 21  1  0
 24  4  1  0
 25 13  1  0
 26 14  1  0
 27 26  1  0
 28 25  1  0
  3  4  2  0
  9 18  1  0
 10 13  2  0
 22 23  2  0
M  END

> <chembl_id>
CHEMBL2

> <chembl_pref_name>
PRAZOSIN

$$$$

     RDKit          2D

 31 33  0  0  0  0  0  0  0  0999 V2000
    5.0042   -1.9542    0.0000 C   0  0  0  0  0  0  0  0  0  0  0  0
    5.0042   -2.7875    0.0000 N   0  0  0  0  0  0  0  0  0  0  0  0
    3.5792   -2.7917    0.0000 C   0  0  0  0  0  0  0  0  0  0  0  0
    4.2917   -3.2042    0.0000 C   0  0  0  0  0  0  0  0  0  0  0  0
    4.2875   -1.5500    0.0000 N   0  0  0  0  0  0  0  0  0  0  0  0
    3.5792   -1.9667    0.0000 C   0  0  0  0  0  0  0  0  0  0  0  0
    5.7167   -1.5417    0.0000 N   0  0  0  0  0  0  0  0  0  0  0  0
    7.1417   -0.7167    0.0000 N   0  0  0  0  0  0  0  0  0  0  0  0
    2.8625   -3.2042    0.0000 C   0  0  0  0  0  0  0  0  0  0  0  0
    7.8542   -0.3000    0.0000 C   0  0  0  0  0  0  0  0  0  0  0  0
    2.8625   -1.5542    0.0000 C   0  0  0  0  0  0  0  0  0  0  0  0
    2.1500   -2.7917    0.0000 C   0  0  0  0  0  0  0  0  0  0  0  0
    2.1500   -1.9667    0.0000 C   0  0  0  0  0  0  0  0  0  0  0  0
   10.0042   -3.1792    0.0000 C   0  0  0  0  0  0  0  0  0  0  0  0
    6.4292   -1.9542    0.0000 C   0  0  0  0  0  0  0  0  0  0  0  0
    5.7125   -0.7167    0.0000 C   0  0  0  0  0  0  0  0  0  0  0  0
    6.4250   -0.3042    0.0000 C   0  0  0  0  0  0  0  0  0  0  0  0
    7.1417   -1.5417    0.0000 C   0  0  0  0  0  0  0  0  0  0  0  0
    8.5667   -0.7125    0.0000 C   0  0  0  0  0  0  0  0  0  0  0  0
    9.2917   -2.7750    0.0000 C   0  0  0  0  0  0  0  0  0  0  0  0
    7.8542    0.5250    0.0000 O   0  0  0  0  0  0  0  0  0  0  0  0
    8.5750   -1.5375    0.0000 C   0  0  0  0  0  0  0  0  0  0  0  0
    9.2917   -1.9500    0.0000 C   0  0  0  0  0  0  0  0  0  0  0  0
   10.0042   -4.0042    0.0000 O   0  0  0  0  0  0  0  0  0  0  0  0
    4.2917   -4.0292    0.0000 N   0  0  0  0  0  0  0  0  0  0  0  0
    1.4292   -3.2042    0.0000 O   0  0  0  0  0  0  0  0  0  0  0  0
    1.4375   -1.5542    0.0000 O   0  0  0  0  0  0  0  0  0  0  0  0
   10.7167   -2.7667    0.0000 O   0  0  0  0  0  0  0  0  0  0  0  0
    0.7167   -2.7917    0.0000 C   0  0  0  0  0  0  0  0  0  0  0  0
    0.7167   -1.9667    0.0000 C   0  0  0  0  0  0  0  0  0  0  0  0
   11.4375   -3.1792    0.0000 C   0  0  0  0  0  0  0  0  0  0  0  0
  2  1  1  0
  3  6  1  0
  4  2  2  0
  5  1  2  0
  6  5  1  0
  7  1  1  0
  8 17  1  0
  9  3  2  0
 10  8  1  0
 11  6  2  0
 12 13  2  0
 13 11  1  0
 14 20  1  0
 15  7  1  0
 16  7  1  0
 17 16  1  0
 18 15  1  0
 19 10  1  0
 20 23  2  0
 21 10  2  0
 22 19  2  0
 23 22  1  0
 24 14  2  0
 25  4  1  0
 26 12  1  0
 27 13  1  0
 28 14  1  0
 29 26  1  0
 30 27  1  0
 31 28  1  0
  3  4  1  0
 18  8  1  0
  9 12  1  0
M  END

> <chembl_id>
CHEMBL6306

> <chembl_pref_name>
None

$$$$

     RDKit          2D

 32 36  0  0  0  0  0  0  0  0999 V2000
    5.5375   -0.1792    0.0000 C   0  0  0  0  0  0  0  0  0  0  0  0
    5.9417   -0.8917    0.0000 O   0  0  0  0  0  0  0  0  0  0  0  0
    6.3625   -0.1667    0.0000 C   0  0  0  0  0  0  0  0  0  0  0  0
    1.9667   -1.4250    0.0000 C   0  0  0  0  0  0  0  0  0  0  0  0
    1.9750   -2.2542    0.0000 N   0  0  0  0  0  0  0  0  0  0  0  0
    4.8250    0.2333    0.0000 C   0  0  0  0  0  0  0  0  0  0  0  0
    0.5417   -2.2542    0.0000 C   0  0  0  0  0  0  0  0  0  0  0  0
    1.2625   -2.6667    0.0000 C   0  0  0  0  0  0  0  0  0  0  0  0
    1.2542   -1.0167    0.0000 N   0  0  0  0  0  0  0  0  0  0  0  0
    0.5417   -1.4292    0.0000 C   0  0  0  0  0  0  0  0  0  0  0  0
    2.6792   -1.0125    0.0000 N   0  0  0  0  0  0  0  0  0  0  0  0
    4.1042   -0.1792    0.0000 N   0  0  0  0  0  0  0  0  0  0  0  0
   -0.1708   -2.6750    0.0000 C   0  0  0  0  0  0  0  0  0  0  0  0
   -0.1708   -1.0167    0.0000 C   0  0  0  0  0  0  0  0  0  0  0  0
   -0.8833   -2.2625    0.0000 C   0  0  0  0  0  0  0  0  0  0  0  0
   -0.8833   -1.4375    0.0000 C   0  0  0  0  0  0  0  0  0  0  0  0
    7.0750    0.2458    0.0000 C   0  0  0  0  0  0  0  0  0  0  0  0
    4.8167    1.0583    0.0000 O   0  0  0  0  0  0  0  0  0  0  0  0
    3.4000   -1.4167    0.0000 C   0  0  0  0  0  0  0  0  0  0  0  0
    2.6792   -0.1875    0.0000 C   0  0  0  0  0  0  0  0  0  0  0  0
    3.3917    0.2333    0.0000 C   0  0  0  0  0  0  0  0  0  0  0  0
    4.1125   -1.0042    0.0000 C   0  0  0  0  0  0  0  0  0  0  0  0
    1.2542   -3.4917    0.0000 N   0  0  0  0  0  0  0  0  0  0  0  0
   -1.6000   -2.6750    0.0000 O   0  0  0  0  0  0  0  0  0  0  0  0
   -1.5958   -1.0250    0.0000 O   0  0  0  0  0  0  0  0  0  0  0  0
    7.7875   -0.1667    0.0000 C   0  0  0  0  0  0  0  0  0  0  0  0
    7.0625    1.0708    0.0000 C   0  0  0  0  0  0  0  0  0  0  0  0
   -2.3125   -1.4375    0.0000 C   0  0  0  0  0  0  0  0  0  0  0  0
   -2.3125   -2.2625    0.0000 C   0  0  0  0  0  0  0  0  0  0  0  0
    7.7750    1.4833    0.0000 C   0  0  0  0  0  0  0  0  0  0  0  0
    8.4917    0.2500    0.0000 C   0  0  0  0  0  0  0  0  0  0  0  0
    8.4917    1.0750    0.0000 C   0  0  0  0  0  0  0  0  0  0  0  0
  2  1  1  0
  3  1  1  0
  4 11  1  0
  5  4  1  0
  6  1  1  0
  7 10  1  0
  8  5  2  0
  9  4  2  0
 10  9  1  0
 11 19  1  0
 12  6  1  0
 13  7  2  0
 14 10  2  0
 15 16  2  0
 16 14  1  0
 17  3  1  0
 18  6  2  0
 19 22  1  0
 20 21  1  0
 21 12  1  0
 22 12  1  0
 23  8  1  0
 24 15  1  0
 25 16  1  0
 26 17  2  0
 27 17  1  0
 28 25  1  0
 29 24  1  0
 30 27  2  0
 31 26  1  0
 32 30  1  0
  2  3  1  0
 20 11  1  0
 31 32  2  0
  7  8  1  0
 13 15  1  0
M  END

> <chembl_id>
CHEMBL415103

> <chembl_pref_name>
None

$$$$

     RDKit          2D

 33 36  0  0  0  0  0  0  0  0999 V2000
    1.9667   -1.4250    0.0000 C   0  0  0  0  0  0  0  0  0  0  0  0
    1.9750   -2.2542    0.0000 N   0  0  0  0  0  0  0  0  0  0  0  0
    0.5417   -2.2542    0.0000 C   0  0  0  0  0  0  0  0  0  0  0  0
    1.2625   -2.6667    0.0000 C   0  0  0  0  0  0  0  0  0  0  0  0
    1.2542   -1.0167    0.0000 N   0  0  0  0  0  0  0  0  0  0  0  0
    0.5417   -1.4292    0.0000 C   0  0  0  0  0  0  0  0  0  0  0  0
    2.6792   -1.0125    0.0000 N   0  0  0  0  0  0  0  0  0  0  0  0
    4.1042   -0.1792    0.0000 N   0  0  0  0  0  0  0  0  0  0  0  0
    4.8250    0.2333    0.0000 C   0  0  0  0  0  0  0  0  0  0  0  0
   -0.1708   -2.6750    0.0000 C   0  0  0  0  0  0  0  0  0  0  0  0
   -0.1708   -1.0167    0.0000 C   0  0  0  0  0  0  0  0  0  0  0  0
    5.5375   -0.1792    0.0000 C   0  0  0  0  0  0  0  0  0  0  0  0
    5.5417   -1.0042    0.0000 C   0  0  0  0  0  0  0  0  0  0  0  0
   -0.8833   -2.2625    0.0000 C   0  0  0  0  0  0  0  0  0  0  0  0
   -0.8833   -1.4375    0.0000 C   0  0  0  0  0  0  0  0  0  0  0  0
    6.2542   -1.4167    0.0000 C   0  0  0  0  0  0  0  0  0  0  0  0
    3.4000   -1.4167    0.0000 C   0  0  0  0  0  0  0  0  0  0  0  0
    2.6792   -0.1875    0.0000 C   0  0  0  0  0  0  0  0  0  0  0  0
    3.3917    0.2333    0.0000 C   0  0  0  0  0  0  0  0  0  0  0  0
    4.1125   -1.0042    0.0000 C   0  0  0  0  0  0  0  0  0  0  0  0
    4.8167    1.0583    0.0000 O   0  0  0  0  0  0  0  0  0  0  0  0
    1.2542   -3.4917    0.0000 N   0  0  0  0  0  0  0  0  0  0  0  0
    6.2542   -2.2417    0.0000 O   0  0  0  0  0  0  0  0  0  0  0  0
    6.9667   -1.0042    0.0000 C   0  0  0  0  0  0  0  0  0  0  0  0
   -1.6000   -2.6750    0.0000 O   0  0  0  0  0  0  0  0  0  0  0  0
   -1.5958   -1.0250    0.0000 O   0  0  0  0  0  0  0  0  0  0  0  0
    7.6792   -1.4167    0.0000 C   0  0  0  0  0  0  0  0  0  0  0  0
    6.9667   -0.1792    0.0000 C   0  0  0  0  0  0  0  0  0  0  0  0
   -2.3125   -2.2625    0.0000 C   0  0  0  0  0  0  0  0  0  0  0  0
   -2.3125   -1.4375    0.0000 C   0  0  0  0  0  0  0  0  0  0  0  0
    7.6792    0.2333    0.0000 C   0  0  0  0  0  0  0  0  0  0  0  0
    8.3917   -1.0042    0.0000 C   0  0  0  0  0  0  0  0  0  0  0  0
    8.3917   -0.1792    0.0000 C   0  0  0  0  0  0  0  0  0  0  0  0
  2  1  1  0
  3  6  1  0
  4  2  2  0
  5  1  2  0
  6  5  1  0
  7  1  1  0
  8 19  1  0
  9  8  1  0
 10  3  2  0
 11  6  2  0
 12  9  1  0
 13 12  2  0
 14 15  2  0
 15 11  1  0
 16 13  1  0
 17  7  1  0
 18  7  1  0
 19 18  1  0
 20 17  1  0
 21  9  2  0
 22  4  1  0
 23 16  2  0
 24 16  1  0
 25 14  1  0
 26 15  1  0
 27 24  2  0
 28 24  1  0
 29 25  1  0
 30 26  1  0
 31 28  2  0
 32 27  1  0
 33 31  1  0
  3  4  1  0
 20  8  1  0
 10 14  1  0
 32 33  2  0
M  END

> <chembl_id>
CHEMBL6321

> <chembl_pref_name>
None

$$$$

     RDKit          2D

 33 37  0  0  0  0  0  0  0  0999 V2000
    1.9667   -1.4250    0.0000 C   0  0  0  0  0  0  0  0  0  0  0  0
    1.9750   -2.2542    0.0000 N   0  0  0  0  0  0  0  0  0  0  0  0
    0.5417   -2.2542    0.0000 C   0  0  0  0  0  0  0  0  0  0  0  0
    1.2625   -2.6667    0.0000 C   0  0  0  0  0  0  0  0  0  0  0  0
    1.2542   -1.0167    0.0000 N   0  0  0  0  0  0  0  0  0  0  0  0
    0.5417   -1.4292    0.0000 C   0  0  0  0  0  0  0  0  0  0  0  0
    4.8250    0.2333    0.0000 C   0  0  0  0  0  0  0  0  0  0  0  0
    2.6792   -1.0125    0.0000 N   0  0  0  0  0  0  0  0  0  0  0  0
    4.1042   -0.1792    0.0000 N   0  0  0  0  0  0  0  0  0  0  0  0
   -0.1708   -2.6750    0.0000 C   0  0  0  0  0  0  0  0  0  0  0  0
    5.5375   -0.1792    0.0000 C   0  0  0  0  0  0  0  0  0  0  0  0
   -0.1708   -1.0167    0.0000 C   0  0  0  0  0  0  0  0  0  0  0  0
   -0.8833   -2.2625    0.0000 C   0  0  0  0  0  0  0  0  0  0  0  0
   -0.8833   -1.4375    0.0000 C   0  0  0  0  0  0  0  0  0  0  0  0
    5.5417   -1.0042    0.0000 C   0  0  0  0  0  0  0  0  0  0  0  0
    6.2542   -1.4167    0.0000 C   0  0  0  0  0  0  0  0  0  0  0  0
    3.4000   -1.4167    0.0000 C   0  0  0  0  0  0  0  0  0  0  0  0
    2.6792   -0.1875    0.0000 C   0  0  0  0  0  0  0  0  0  0  0  0
    3.3917    0.2333    0.0000 C   0  0  0  0  0  0  0  0  0  0  0  0
    4.1125   -1.0042    0.0000 C   0  0  0  0  0  0  0  0  0  0  0  0
    4.8167    1.0583    0.0000 O   0  0  0  0  0  0  0  0  0  0  0  0
    6.2500    0.2333    0.0000 C   0  0  0  0  0  0  0  0  0  0  0  0
    1.2542   -3.4917    0.0000 N   0  0  0  0  0  0  0  0  0  0  0  0
    6.9667   -1.0042    0.0000 C   0  0  0  0  0  0  0  0  0  0  0  0
    6.9667   -0.1792    0.0000 C   0  0  0  0  0  0  0  0  0  0  0  0
   -1.6000   -2.6750    0.0000 O   0  0  0  0  0  0  0  0  0  0  0  0
   -1.5958   -1.0250    0.0000 O   0  0  0  0  0  0  0  0  0  0  0  0
    6.2542   -2.2417    0.0000 C   0  0  0  0  0  0  0  0  0  0  0  0
    7.6792   -1.4125    0.0000 C   0  0  0  0  0  0  0  0  0  0  0  0
   -2.3125   -1.4375    0.0000 C   0  0  0  0  0  0  0  0  0  0  0  0
   -2.3125   -2.2625    0.0000 C   0  0  0  0  0  0  0  0  0  0  0  0
    6.9667   -2.6542    0.0000 C   0  0  0  0  0  0  0  0  0  0  0  0
    7.6875   -2.2375    0.0000 C   0  0  0  0  0  0  0  0  0  0  0  0
  2  1  1  0
  3  6  1  0
  4  2  2  0
  5  1  2  0
  6  5  1  0
  7  9  1  0
  8  1  1  0
  9 19  1  0
 10  3  2  0
 11  7  1  0
 12  6  2  0
 13 14  2  0
 14 12  1  0
 15 11  2  0
 16 15  1  0
 17  8  1  0
 18  8  1  0
 19 18  1  0
 20 17  1  0
 21  7  2  0
 22 11  1  0
 23  4  1  0
 24 25  1  0
 25 22  2  0
 26 13  1  0
 27 14  1  0
 28 16  1  0
 29 24  1  0
 30 27  1  0
 31 26  1  0
 32 28  2  0
 33 29  2  0
  3  4  1  0
 20  9  1  0
 10 13  1  0
 16 24  2  0
 33 32  1  0
M  END

> <chembl_id>
CHEMBL6323

> <chembl_pref_name>
None

$$$$

     RDKit          2D

 33 36  0  0  0  0  0  0  0  0999 V2000
    1.9667   -1.4250    0.0000 C   0  0  0  0  0  0  0  0  0  0  0  0
    1.9750   -2.2542    0.0000 N   0  0  0  0  0  0  0  0  0  0  0  0
    0.5417   -2.2542    0.0000 C   0  0  0  0  0  0  0  0  0  0  0  0
    1.2625   -2.6667    0.0000 C   0  0  0  0  0  0  0  0  0  0  0  0
    1.2542   -1.0167    0.0000 N   0  0  0  0  0  0  0  0  0  0  0  0
    4.8250    0.2333    0.0000 C   0  0  0  0  0  0  0  0  0  0  0  0
    0.5417   -1.4292    0.0000 C   0  0  0  0  0  0  0  0  0  0  0  0
    2.6792   -1.0125    0.0000 N   0  0  0  0  0  0  0  0  0  0  0  0
    9.1000    1.8958    0.0000 N   0  0  0  0  0  0  0  0  0  0  0  0
    4.1042   -0.1792    0.0000 N   0  0  0  0  0  0  0  0  0  0  0  0
   -0.1708   -2.6750    0.0000 C   0  0  0  0  0  0  0  0  0  0  0  0
   -0.1708   -1.0167    0.0000 C   0  0  0  0  0  0  0  0  0  0  0  0
    9.8167    2.3083    0.0000 N   0  0  0  0  0  0  0  0  0  0  0  0
    5.5375   -0.1792    0.0000 N   0  0  0  0  0  0  0  0  0  0  0  0
   -0.8833   -2.2625    0.0000 C   0  0  0  0  0  0  0  0  0  0  0  0
   -0.8833   -1.4375    0.0000 C   0  0  0  0  0  0  0  0  0  0  0  0
    8.3917    1.4750    0.0000 N   0  0  0  0  0  0  0  0  0  0  0  0
    4.8167    1.0583    0.0000 S   0  0  0  0  0  0  0  0  0  0  0  0
    3.4000   -1.4167    0.0000 C   0  0  0  0  0  0  0  0  0  0  0  0
    2.6792   -0.1875    0.0000 C   0  0  0  0  0  0  0  0  0  0  0  0
    3.3917    0.2333    0.0000 C   0  0  0  0  0  0  0  0  0  0  0  0
    4.1125   -1.0042    0.0000 C   0  0  0  0  0  0  0  0  0  0  0  0
    1.2542   -3.4917    0.0000 N   0  0  0  0  0  0  0  0  0  0  0  0
    6.2542    0.2333    0.0000 C   0  0  0  0  0  0  0  0  0  0  0  0
    7.6792    1.0583    0.0000 C   0  0  0  0  0  0  0  0  0  0  0  0
   -1.6000   -2.6750    0.0000 O   0  0  0  0  0  0  0  0  0  0  0  0
   -1.5958   -1.0250    0.0000 O   0  0  0  0  0  0  0  0  0  0  0  0
    6.2500    1.0583    0.0000 C   0  0  0  0  0  0  0  0  0  0  0  0
    6.9667   -0.1792    0.0000 C   0  0  0  0  0  0  0  0  0  0  0  0
    7.6792    0.2333    0.0000 C   0  0  0  0  0  0  0  0  0  0  0  0
    6.9542    1.4708    0.0000 C   0  0  0  0  0  0  0  0  0  0  0  0
   -2.3125   -1.4375    0.0000 C   0  0  0  0  0  0  0  0  0  0  0  0
   -2.3125   -2.2625    0.0000 C   0  0  0  0  0  0  0  0  0  0  0  0
  2  1  2  0
  3  7  1  0
  4  2  1  0
  5  1  1  0
  6 10  1  0
  7  5  2  0
  8  1  1  0
  9 17  2  0
 10 21  1  0
 11  3  1  0
 12  7  1  0
 13  9  2  0
 14  6  2  0
 15 16  1  0
 16 12  2  0
 17 25  1  0
 18  6  1  0
 19  8  1  0
 20  8  1  0
 21 20  1  0
 22 19  1  0
 23  4  1  0
 24 14  1  0
 25 30  1  0
 26 15  1  0
 27 16  1  0
 28 24  2  0
 29 24  1  0
 30 29  2  0
 31 28  1  0
 32 27  1  0
 33 26  1  0
  3  4  2  0
 22 10  1  0
 11 15  2  0
 31 25  2  0
M  CHG  2   9   1  13  -1
M  END

> <chembl_id>
CHEMBL6313

> <chembl_pref_name>
None

$$$$

     RDKit          2D

 31 34  0  0  0  0  0  0  0  0999 V2000
    1.9667   -1.4250    0.0000 C   0  0  0  0  0  0  0  0  0  0  0  0
    1.9750   -2.2542    0.0000 N   0  0  0  0  0  0  0  0  0  0  0  0
    0.5417   -2.2542    0.0000 C   0  0  0  0  0  0  0  0  0  0  0  0
    1.2625   -2.6667    0.0000 C   0  0  0  0  0  0  0  0  0  0  0  0
    1.2542   -1.0167    0.0000 N   0  0  0  0  0  0  0  0  0  0  0  0
    0.5417   -1.4292    0.0000 C   0  0  0  0  0  0  0  0  0  0  0  0
    4.8250    0.2333    0.0000 C   0  0  0  0  0  0  0  0  0  0  0  0
    2.6792   -1.0125    0.0000 N   0  0  0  0  0  0  0  0  0  0  0  0
    4.1042   -0.1792    0.0000 N   0  0  0  0  0  0  0  0  0  0  0  0
   -0.1708   -2.6750    0.0000 C   0  0  0  0  0  0  0  0  0  0  0  0
   -0.1708   -1.0167    0.0000 C   0  0  0  0  0  0  0  0  0  0  0  0
    5.5375   -0.1792    0.0000 C   0  0  0  0  0  0  0  0  0  0  0  0
   -0.8833   -2.2625    0.0000 C   0  0  0  0  0  0  0  0  0  0  0  0
   -0.8833   -1.4375    0.0000 C   0  0  0  0  0  0  0  0  0  0  0  0
    3.4000   -1.4167    0.0000 C   0  0  0  0  0  0  0  0  0  0  0  0
    2.6792   -0.1875    0.0000 C   0  0  0  0  0  0  0  0  0  0  0  0
    3.3917    0.2333    0.0000 C   0  0  0  0  0  0  0  0  0  0  0  0
    4.1125   -1.0042    0.0000 C   0  0  0  0  0  0  0  0  0  0  0  0
    4.8167    1.0583    0.0000 O   0  0  0  0  0  0  0  0  0  0  0  0
    6.2500    0.2375    0.0000 C   0  0  0  0  0  0  0  0  0  0  0  0
    1.2542   -3.4917    0.0000 N   0  0  0  0  0  0  0  0  0  0  0  0
    6.9625   -0.1667    0.0000 C   0  0  0  0  0  0  0  0  0  0  0  0
   -1.6000   -2.6750    0.0000 O   0  0  0  0  0  0  0  0  0  0  0  0
   -1.5958   -1.0250    0.0000 O   0  0  0  0  0  0  0  0  0  0  0  0
    8.3917   -0.1542    0.0000 Cl  0  0  0  0  0  0  0  0  0  0  0  0
    5.5375   -1.0042    0.0000 C   0  0  0  0  0  0  0  0  0  0  0  0
    6.2542   -1.4125    0.0000 C   0  0  0  0  0  0  0  0  0  0  0  0
    7.6750    0.2458    0.0000 C   0  0  0  0  0  0  0  0  0  0  0  0
    6.9667   -1.0000    0.0000 C   0  0  0  0  0  0  0  0  0  0  0  0
   -2.3125   -1.4375    0.0000 C   0  0  0  0  0  0  0  0  0  0  0  0
   -2.3125   -2.2625    0.0000 C   0  0  0  0  0  0  0  0  0  0  0  0
  2  1  1  0
  3  6  1  0
  4  2  2  0
  5  1  2  0
  6  5  1  0
  7  9  1  0
  8  1  1  0
  9 17  1  0
 10  3  2  0
 11  6  2  0
 12  7  1  0
 13 14  2  0
 14 11  1  0
 15  8  1  0
 16  8  1  0
 17 16  1  0
 18 15  1  0
 19  7  2  0
 20 12  1  0
 21  4  1  0
 22 20  2  0
 23 13  1  0
 24 14  1  0
 25 28  1  0
 26 12  2  0
 27 26  1  0
 28 22  1  0
 29 27  2  0
 30 24  1  0
 31 23  1  0
  3  4  1  0
 18  9  1  0
 10 13  1  0
 22 29  1  0
M  END

> <chembl_id>
CHEMBL266081

> <chembl_pref_name>
None

$$$$

     RDKit          2D

 34 37  0  0  0  0  0  0  0  0999 V2000
    5.0042   -1.9542    0.0000 C   0  0  0  0  0  0  0  0  0  0  0  0
    5.0042   -2.7875    0.0000 N   0  0  0  0  0  0  0  0  0  0  0  0
    3.5792   -2.7917    0.0000 C   0  0  0  0  0  0  0  0  0  0  0  0
    4.2917   -3.2042    0.0000 C   0  0  0  0  0  0  0  0  0  0  0  0
    4.2875   -1.5500    0.0000 N   0  0  0  0  0  0  0  0  0  0  0  0
    3.5792   -1.9667    0.0000 C   0  0  0  0  0  0  0  0  0  0  0  0
    5.7167   -1.5417    0.0000 N   0  0  0  0  0  0  0  0  0  0  0  0
    7.1417   -0.7167    0.0000 N   0  0  0  0  0  0  0  0  0  0  0  0
    7.8542   -0.3000    0.0000 C   0  0  0  0  0  0  0  0  0  0  0  0
    2.8625   -3.2042    0.0000 C   0  0  0  0  0  0  0  0  0  0  0  0
    2.8625   -1.5542    0.0000 C   0  0  0  0  0  0  0  0  0  0  0  0
   12.1500   -3.5917    0.0000 C   0  0  0  0  0  0  0  0  0  0  0  0
    8.5667   -0.7125    0.0000 C   0  0  0  0  0  0  0  0  0  0  0  0
    2.1500   -2.7917    0.0000 C   0  0  0  0  0  0  0  0  0  0  0  0
    2.1500   -1.9667    0.0000 C   0  0  0  0  0  0  0  0  0  0  0  0
   11.4292   -3.1792    0.0000 N   0  0  0  0  0  0  0  0  0  0  0  0
    8.5750   -1.5375    0.0000 C   0  0  0  0  0  0  0  0  0  0  0  0
   12.8667   -4.0042    0.0000 S   0  0  0  0  0  0  0  0  0  0  0  0
    6.4292   -1.9542    0.0000 C   0  0  0  0  0  0  0  0  0  0  0  0
    5.7125   -0.7167    0.0000 C   0  0  0  0  0  0  0  0  0  0  0  0
    6.4250   -0.3042    0.0000 C   0  0  0  0  0  0  0  0  0  0  0  0
    7.1417   -1.5417    0.0000 C   0  0  0  0  0  0  0  0  0  0  0  0
    7.8542    0.5250    0.0000 O   0  0  0  0  0  0  0  0  0  0  0  0
    4.2917   -4.0292    0.0000 N   0  0  0  0  0  0  0  0  0  0  0  0
    9.2917   -1.9500    0.0000 C   0  0  0  0  0  0  0  0  0  0  0  0
   10.7167   -2.7667    0.0000 C   0  0  0  0  0  0  0  0  0  0  0  0
    1.4292   -3.2042    0.0000 O   0  0  0  0  0  0  0  0  0  0  0  0
    1.4375   -1.5542    0.0000 O   0  0  0  0  0  0  0  0  0  0  0  0
   10.0000   -1.5292    0.0000 C   0  0  0  0  0  0  0  0  0  0  0  0
    9.2875   -2.7750    0.0000 C   0  0  0  0  0  0  0  0  0  0  0  0
   10.0042   -3.1792    0.0000 C   0  0  0  0  0  0  0  0  0  0  0  0
   10.7042   -1.9417    0.0000 C   0  0  0  0  0  0  0  0  0  0  0  0
    0.7167   -2.7917    0.0000 C   0  0  0  0  0  0  0  0  0  0  0  0
    0.7167   -1.9667    0.0000 C   0  0  0  0  0  0  0  0  0  0  0  0
  2  1  1  0
  3  6  1  0
  4  2  2  0
  5  1  2  0
  6  5  1  0
  7  1  1  0
  8 21  1  0
  9  8  1  0
 10  3  2  0
 11  6  2  0
 12 16  2  0
 13  9  1  0
 14 15  2  0
 15 11  1  0
 16 26  1  0
 17 13  2  0
 18 12  2  0
 19  7  1  0
 20  7  1  0
 21 20  1  0
 22 19  1  0
 23  9  2  0
 24  4  1  0
 25 17  1  0
 26 31  2  0
 27 14  1  0
 28 15  1  0
 29 25  1  0
 30 25  2  0
 31 30  1  0
 32 29  2  0
 33 27  1  0
 34 28  1  0
  3  4  1  0
 22  8  1  0
 10 14  1  0
 32 26  1  0
M  END

> <chembl_id>
CHEMBL6314

> <chembl_pref_name>
None

$$$$

     RDKit          2D

 36 39  0  0  0  0  0  0  0  0999 V2000
    5.0042   -1.9542    0.0000 C   0  0  0  0  0  0  0  0  0  0  0  0
    5.0042   -2.7875    0.0000 N   0  0  0  0  0  0  0  0  0  0  0  0
    3.5792   -2.7917    0.0000 C   0  0  0  0  0  0  0  0  0  0  0  0
    4.2917   -3.2042    0.0000 C   0  0  0  0  0  0  0  0  0  0  0  0
    4.2875   -1.5500    0.0000 N   0  0  0  0  0  0  0  0  0  0  0  0
    3.5792   -1.9667    0.0000 C   0  0  0  0  0  0  0  0  0  0  0  0
    5.7167   -1.5417    0.0000 N   0  0  0  0  0  0  0  0  0  0  0  0
    7.1417   -0.7167    0.0000 N   0  0  0  0  0  0  0  0  0  0  0  0
    7.8542   -0.3000    0.0000 C   0  0  0  0  0  0  0  0  0  0  0  0
    2.8625   -3.2042    0.0000 C   0  0  0  0  0  0  0  0  0  0  0  0
    2.8625   -1.5542    0.0000 C   0  0  0  0  0  0  0  0  0  0  0  0
    8.5667   -0.7125    0.0000 C   0  0  0  0  0  0  0  0  0  0  0  0
    2.1500   -2.7917    0.0000 C   0  0  0  0  0  0  0  0  0  0  0  0
    2.1500   -1.9667    0.0000 C   0  0  0  0  0  0  0  0  0  0  0  0
    8.5750   -1.5375    0.0000 C   0  0  0  0  0  0  0  0  0  0  0  0
   12.1417   -2.7667    0.0000 C   0  0  0  0  0  0  0  0  0  0  0  0
   11.4292   -3.1792    0.0000 N   0  0  0  0  0  0  0  0  0  0  0  0
    5.7125   -0.7167    0.0000 C   0  0  0  0  0  0  0  0  0  0  0  0
    6.4292   -1.9542    0.0000 C   0  0  0  0  0  0  0  0  0  0  0  0
    7.1417   -1.5417    0.0000 C   0  0  0  0  0  0  0  0  0  0  0  0
    6.4250   -0.3042    0.0000 C   0  0  0  0  0  0  0  0  0  0  0  0
    7.8542    0.5250    0.0000 O   0  0  0  0  0  0  0  0  0  0  0  0
   12.1417   -1.9417    0.0000 O   0  0  0  0  0  0  0  0  0  0  0  0
    4.2917   -4.0292    0.0000 N   0  0  0  0  0  0  0  0  0  0  0  0
    9.2917   -1.9500    0.0000 C   0  0  0  0  0  0  0  0  0  0  0  0
   10.7167   -2.7667    0.0000 C   0  0  0  0  0  0  0  0  0  0  0  0
    1.4292   -3.2042    0.0000 O   0  0  0  0  0  0  0  0  0  0  0  0
    1.4375   -1.5542    0.0000 O   0  0  0  0  0  0  0  0  0  0  0  0
   10.0000   -1.5292    0.0000 C   0  0  0  0  0  0  0  0  0  0  0  0
    9.2875   -2.7750    0.0000 C   0  0  0  0  0  0  0  0  0  0  0  0
   10.0042   -3.1792    0.0000 C   0  0  0  0  0  0  0  0  0  0  0  0
   10.7042   -1.9417    0.0000 C   0  0  0  0  0  0  0  0  0  0  0  0
   13.5750   -2.7542    0.0000 Br  0  0  0  0  0  0  0  0  0  0  0  0
   12.8625   -3.1750    0.0000 C   0  0  0  0  0  0  0  0  0  0  0  0
    0.7167   -2.7917    0.0000 C   0  0  0  0  0  0  0  0  0  0  0  0
    0.7167   -1.9667    0.0000 C   0  0  0  0  0  0  0  0  0  0  0  0
  2  1  1  0
  3  6  1  0
  4  2  2  0
  5  1  2  0
  6  5  1  0
  7  1  1  0
  8 20  1  0
  9  8  1  0
 10  3  2  0
 11  6  2  0
 12  9  1  0
 13 14  2  0
 14 11  1  0
 15 12  2  0
 16 17  1  0
 17 26  1  0
 18  7  1  0
 19  7  1  0
 20 19  1  0
 21 18  1  0
 22  9  2  0
 23 16  2  0
 24  4  1  0
 25 15  1  0
 26 31  2  0
 27 13  1  0
 28 14  1  0
 29 25  1  0
 30 25  2  0
 31 30  1  0
 32 29  2  0
 33 34  1  0
 34 16  1  0
 35 27  1  0
 36 28  1  0
  3  4  1  0
 21  8  1  0
 13 10  1  0
 32 26  1  0
M  END

> <chembl_id>
CHEMBL6343

> <chembl_pref_name>
None

$$$$

     RDKit          2D

 18 20  0  0  0  0  0  0  0  0999 V2000
    6.5250   -2.4417    0.0000 C   0  0  0  0  0  0  0  0  0  0  0  0
    6.5250   -1.6167    0.0000 O   0  0  0  0  0  0  0  0  0  0  0  0
    5.8125   -1.2042    0.0000 C   0  0  0  0  0  0  0  0  0  0  0  0
    5.8125   -2.8542    0.0000 C   0  0  0  0  0  0  0  0  0  0  0  0
    5.1000   -1.6167    0.0000 C   0  0  0  0  0  0  0  0  0  0  0  0
    5.1000   -2.4417    0.0000 C   0  0  0  0  0  0  0  0  0  0  0  0
    7.2417   -2.8542    0.0000 C   0  0  0  0  0  0  0  0  0  0  0  0
    5.8125   -3.6875    0.0000 C   0  0  0  0  0  0  0  0  0  0  0  0
    4.3875   -2.8542    0.0000 C   0  0  0  0  0  0  0  0  0  0  0  0
    7.2417   -3.6875    0.0000 C   0  0  0  0  0  0  0  0  0  0  0  0
    4.3875   -1.2042    0.0000 C   0  0  0  0  0  0  0  0  0  0  0  0
    5.8125   -0.3792    0.0000 O   0  0  0  0  0  0  0  0  0  0  0  0
    6.5250   -4.1000    0.0000 C   0  0  0  0  0  0  0  0  0  0  0  0
    7.9542   -2.4375    0.0000 O   0  0  0  0  0  0  0  0  0  0  0  0
    3.6667   -1.6250    0.0000 C   0  0  0  0  0  0  0  0  0  0  0  0
    3.6667   -2.4417    0.0000 C   0  0  0  0  0  0  0  0  0  0  0  0
    7.9667   -4.1042    0.0000 O   0  0  0  0  0  0  0  0  0  0  0  0
    2.9500   -1.2042    0.0000 O   0  0  0  0  0  0  0  0  0  0  0  0
  2  1  1  0
  3  2  1  0
  4  1  2  0
  5  6  1  0
  6  4  1  0
  7  1  1  0
  8  4  1  0
  9  6  2  0
 10  7  2  0
 11  5  2  0
 12  3  2  0
 13 10  1  0
 14  7  1  0
 15 16  2  0
 16  9  1  0
 17 10  1  0
 18 15  1  0
  8 13  2  0
  5  3  1  0
 11 15  1  0
M  END

> <chembl_id>
CHEMBL204146

> <chembl_pref_name>
None

$$$$

     RDKit          2D

 15 17  0  0  0  0  0  0  0  0999 V2000
    0.2417    0.6958    0.0000 C   0  0  0  0  0  0  0  0  0  0  0  0
    0.9542    0.2833    0.0000 O   0  0  0  0  0  0  0  0  0  0  0  0
   -0.4708   -0.5417    0.0000 C   0  0  0  0  0  0  0  0  0  0  0  0
   -0.4708    0.2833    0.0000 C   0  0  0  0  0  0  0  0  0  0  0  0
    0.2417   -0.9542    0.0000 C   0  0  0  0  0  0  0  0  0  0  0  0
    0.9542   -0.5417    0.0000 C   0  0  0  0  0  0  0  0  0  0  0  0
    0.2417    1.5208    0.0000 O   0  0  0  0  0  0  0  0  0  0  0  0
   -1.1833   -0.9542    0.0000 C   0  0  0  0  0  0  0  0  0  0  0  0
   -1.1833    0.6958    0.0000 C   0  0  0  0  0  0  0  0  0  0  0  0
    0.2417   -1.7875    0.0000 C   0  0  0  0  0  0  0  0  0  0  0  0
    1.6750   -0.9542    0.0000 C   0  0  0  0  0  0  0  0  0  0  0  0
   -1.9083   -0.5417    0.0000 C   0  0  0  0  0  0  0  0  0  0  0  0
   -1.9083    0.2750    0.0000 C   0  0  0  0  0  0  0  0  0  0  0  0
    0.9542   -2.2000    0.0000 C   0  0  0  0  0  0  0  0  0  0  0  0
    1.6750   -1.7875    0.0000 C   0  0  0  0  0  0  0  0  0  0  0  0
  2  1  1  0
  3  4  1  0
  4  1  1  0
  5  3  1  0
  6  2  1  0
  7  1  2  0
  8  3  2  0
  9  4  2  0
 10  5  1  0
 11  6  1  0
 12 13  2  0
 13  9  1  0
 14 10  2  0
 15 11  2  0
  6  5  2  0
  8 12  1  0
 15 14  1  0
M  END

> <chembl_id>
CHEMBL6355

> <chembl_pref_name>
None

$$$$

     RDKit          2D

 17 19  0  0  0  0  0  0  0  0999 V2000
    5.8042   -2.4417    0.0000 C   0  0  0  0  0  0  0  0  0  0  0  0
    5.8042   -1.6167    0.0000 O   0  0  0  0  0  0  0  0  0  0  0  0
    5.0792   -1.2042    0.0000 C   0  0  0  0  0  0  0  0  0  0  0  0
    5.0792   -2.8542    0.0000 C   0  0  0  0  0  0  0  0  0  0  0  0
    6.5167   -2.8542    0.0000 C   0  0  0  0  0  0  0  0  0  0  0  0
    4.3667   -2.4417    0.0000 C   0  0  0  0  0  0  0  0  0  0  0  0
    4.3667   -1.6167    0.0000 C   0  0  0  0  0  0  0  0  0  0  0  0
    5.0792   -3.6875    0.0000 C   0  0  0  0  0  0  0  0  0  0  0  0
    6.5167   -3.6875    0.0000 C   0  0  0  0  0  0  0  0  0  0  0  0
    5.0792   -0.3792    0.0000 O   0  0  0  0  0  0  0  0  0  0  0  0
    5.7917   -4.1000    0.0000 C   0  0  0  0  0  0  0  0  0  0  0  0
    7.2292   -2.4417    0.0000 O   0  0  0  0  0  0  0  0  0  0  0  0
    7.2417   -4.1042    0.0000 O   0  0  0  0  0  0  0  0  0  0  0  0
    3.6542   -2.8542    0.0000 C   0  0  0  0  0  0  0  0  0  0  0  0
    3.6542   -1.2042    0.0000 C   0  0  0  0  0  0  0  0  0  0  0  0
    2.9417   -2.4417    0.0000 C   0  0  0  0  0  0  0  0  0  0  0  0
    2.9417   -1.6250    0.0000 C   0  0  0  0  0  0  0  0  0  0  0  0
  2  1  1  0
  3  2  1  0
  4  1  2  0
  5  1  1  0
  6  4  1  0
  7  6  1  0
  8  4  1  0
  9  5  2  0
 10  3  2  0
 11  9  1  0
 12  5  1  0
 13  9  1  0
 14  6  2  0
 15  7  2  0
 16 14  1  0
 17 16  2  0
 11  8  2  0
  7  3  1  0
 15 17  1  0
M  END

> <chembl_id>
CHEMBL6364

> <chembl_pref_name>
None

$$$$

     RDKit          2D

 17 19  0  0  0  0  0  0  0  0999 V2000
    5.4792   -3.0667    0.0000 C   0  0  0  0  0  0  0  0  0  0  0  0
    5.4792   -2.2417    0.0000 C   0  0  0  0  0  0  0  0  0  0  0  0
    6.1917   -1.8292    0.0000 C   0  0  0  0  0  0  0  0  0  0  0  0
    6.9042   -2.2417    0.0000 O   0  0  0  0  0  0  0  0  0  0  0  0
    6.1917   -3.4792    0.0000 C   0  0  0  0  0  0  0  0  0  0  0  0
    4.7667   -3.4792    0.0000 C   0  0  0  0  0  0  0  0  0  0  0  0
    6.9042   -3.0667    0.0000 C   0  0  0  0  0  0  0  0  0  0  0  0
    4.7667   -1.8292    0.0000 C   0  0  0  0  0  0  0  0  0  0  0  0
    4.0542   -3.0667    0.0000 C   0  0  0  0  0  0  0  0  0  0  0  0
    4.0542   -2.2417    0.0000 C   0  0  0  0  0  0  0  0  0  0  0  0
    6.1917   -1.0042    0.0000 O   0  0  0  0  0  0  0  0  0  0  0  0
    3.3292   -3.4792    0.0000 O   0  0  0  0  0  0  0  0  0  0  0  0
    3.3417   -1.8292    0.0000 O   0  0  0  0  0  0  0  0  0  0  0  0
    6.1917   -4.3042    0.0000 C   0  0  0  0  0  0  0  0  0  0  0  0
    7.6292   -3.4792    0.0000 C   0  0  0  0  0  0  0  0  0  0  0  0
    6.9042   -4.7167    0.0000 C   0  0  0  0  0  0  0  0  0  0  0  0
    7.6292   -4.3042    0.0000 C   0  0  0  0  0  0  0  0  0  0  0  0
  2  1  1  0
  3  2  1  0
  4  7  1  0
  5  1  1  0
  6  1  2  0
  7  5  2  0
  8  2  2  0
  9  6  1  0
 10  9  2  0
 11  3  2  0
 12  9  1  0
 13 10  1  0
 14  5  1  0
 15  7  1  0
 16 14  2  0
 17 16  1  0
  8 10  1  0
  3  4  1  0
 17 15  2  0
M  END

> <chembl_id>
CHEMBL6365

> <chembl_pref_name>
None

$$$$

     RDKit          2D

 19 21  0  0  0  0  0  0  0  0999 V2000
    5.1000   -2.6500    0.0000 C   0  0  0  0  0  0  0  0  0  0  0  0
    5.1000   -1.8250    0.0000 C   0  0  0  0  0  0  0  0  0  0  0  0
    5.8125   -1.4125    0.0000 C   0  0  0  0  0  0  0  0  0  0  0  0
    5.8125   -3.0625    0.0000 C   0  0  0  0  0  0  0  0  0  0  0  0
    6.5292   -2.6500    0.0000 C   0  0  0  0  0  0  0  0  0  0  0  0
    6.5292   -1.8250    0.0000 O   0  0  0  0  0  0  0  0  0  0  0  0
    4.3875   -3.0625    0.0000 C   0  0  0  0  0  0  0  0  0  0  0  0
    4.3875   -1.4125    0.0000 C   0  0  0  0  0  0  0  0  0  0  0  0
    5.8125   -3.8875    0.0000 C   0  0  0  0  0  0  0  0  0  0  0  0
    7.2500   -3.0625    0.0000 C   0  0  0  0  0  0  0  0  0  0  0  0
    3.6750   -2.6500    0.0000 C   0  0  0  0  0  0  0  0  0  0  0  0
    3.6750   -1.8250    0.0000 C   0  0  0  0  0  0  0  0  0  0  0  0
    6.5250   -4.3000    0.0000 C   0  0  0  0  0  0  0  0  0  0  0  0
    7.2500   -3.8875    0.0000 C   0  0  0  0  0  0  0  0  0  0  0  0
    5.8125   -0.5875    0.0000 O   0  0  0  0  0  0  0  0  0  0  0  0
    2.9500   -1.4125    0.0000 O   0  0  0  0  0  0  0  0  0  0  0  0
    2.9500   -3.0667    0.0000 O   0  0  0  0  0  0  0  0  0  0  0  0
    6.5167   -5.1167    0.0000 O   0  0  0  0  0  0  0  0  0  0  0  0
    7.9750   -4.3042    0.0000 O   0  0  0  0  0  0  0  0  0  0  0  0
  2  1  1  0
  3  2  1  0
  4  1  1  0
  5  4  2  0
  6  5  1  0
  7  1  2  0
  8  2  2  0
  9  4  1  0
 10  5  1  0
 11  7  1  0
 12 11  2  0
 13  9  2  0
 14 13  1  0
 15  3  2  0
 16 12  1  0
 17 11  1  0
 18 13  1  0
 19 14  1  0
 12  8  1  0
  6  3  1  0
 10 14  2  0
M  END

> <chembl_id>
CHEMBL266458

> <chembl_pref_name>
None

$$$$

     RDKit          2D

 21 21  0  0  0  0  0  0  0  0999 V2000
    9.8250   -6.3625    0.0000 Na  0  0  0  0  0 15  0  0  0  0  0  0
    6.9792   -4.7500    0.0000 C   0  0  0  0  0  0  0  0  0  0  0  0
    8.5167   -4.4917    0.0000 C   0  0  0  0  0  0  0  0  0  0  0  0
    7.8500   -5.1875    0.0000 N   0  0  0  0  0  0  0  0  0  0  0  0
    7.1250   -3.7917    0.0000 C   0  0  0  0  0  0  0  0  0  0  0  0
    8.0625   -3.6292    0.0000 C   0  0  0  0  0  0  0  0  0  0  0  0
    6.1250   -5.1917    0.0000 C   0  0  0  0  0  0  0  0  0  0  0  0
    9.4500   -4.7417    0.0000 C   0  0  0  0  0  0  0  0  0  0  0  0
   10.2667   -4.2542    0.0000 C   0  0  0  0  0  0  0  0  0  0  0  0
    5.3625   -4.7542    0.0000 C   0  0  0  0  0  0  0  0  0  0  0  0
    6.1167   -6.0792    0.0000 O   0  0  0  0  0  0  0  0  0  0  0  0
   11.1917   -4.5042    0.0000 O   0  0  0  0  0  0  0  0  0  0  0  0
   10.2667   -3.3042    0.0000 O   0  0  0  0  0  0  0  0  0  0  0  0
    5.3625   -3.8667    0.0000 C   0  0  0  0  0  0  0  0  0  0  0  0
    4.5917   -5.1917    0.0000 C   0  0  0  0  0  0  0  0  0  0  0  0
    7.8417   -6.1500    0.0000 C   0  0  0  0  0  0  0  0  0  0  0  0
    3.8292   -3.8667    0.0000 C   0  0  0  0  0  0  0  0  0  0  0  0
    6.4417   -3.1167    0.0000 C   0  0  0  0  0  0  0  0  0  0  0  0
    4.5917   -3.4250    0.0000 C   0  0  0  0  0  0  0  0  0  0  0  0
    3.8292   -4.7542    0.0000 C   0  0  0  0  0  0  0  0  0  0  0  0
    3.2042   -3.2417    0.0000 Cl  0  0  0  0  0  0  0  0  0  0  0  0
  3  4  1  0
  4  2  1  0
  5  2  2  0
  6  5  1  0
  7  2  1  0
  8  3  1  0
  9  8  1  0
 10  7  1  0
 11  7  2  0
 12  9  1  0
 13  9  2  0
 14 10  1  0
 15 10  2  0
 16  4  1  0
 17 20  2  0
 18  5  1  0
 19 14  2  0
 20 15  1  0
 21 17  1  0
  3  6  2  0
 19 17  1  0
M  CHG  2   1   1  12  -1
M  END

> <chembl_id>
CHEMBL266459

> <chembl_pref_name>
ZOMEPIRAC SODIUM

$$$$

     RDKit          2D

 31 34  0  0  0  0  0  0  0  0999 V2000
    1.9667   -1.4250    0.0000 C   0  0  0  0  0  0  0  0  0  0  0  0
    1.9750   -2.2542    0.0000 N   0  0  0  0  0  0  0  0  0  0  0  0
    0.5417   -2.2542    0.0000 C   0  0  0  0  0  0  0  0  0  0  0  0
    1.2625   -2.6667    0.0000 C   0  0  0  0  0  0  0  0  0  0  0  0
    1.2542   -1.0167    0.0000 N   0  0  0  0  0  0  0  0  0  0  0  0
    0.5417   -1.4292    0.0000 C   0  0  0  0  0  0  0  0  0  0  0  0
    2.6792   -1.0125    0.0000 N   0  0  0  0  0  0  0  0  0  0  0  0
    4.1042   -0.1792    0.0000 N   0  0  0  0  0  0  0  0  0  0  0  0
   -0.1708   -2.6750    0.0000 C   0  0  0  0  0  0  0  0  0  0  0  0
   -0.1708   -1.0167    0.0000 C   0  0  0  0  0  0  0  0  0  0  0  0
    4.8250    0.2333    0.0000 C   0  0  0  0  0  0  0  0  0  0  0  0
   -0.8833   -2.2625    0.0000 C   0  0  0  0  0  0  0  0  0  0  0  0
   -0.8833   -1.4375    0.0000 C   0  0  0  0  0  0  0  0  0  0  0  0
    2.6792   -0.1875    0.0000 C   0  0  0  0  0  0  0  0  0  0  0  0
    3.4000   -1.4167    0.0000 C   0  0  0  0  0  0  0  0  0  0  0  0
    4.1125   -1.0042    0.0000 C   0  0  0  0  0  0  0  0  0  0  0  0
    3.3917    0.2333    0.0000 C   0  0  0  0  0  0  0  0  0  0  0  0
    5.5375   -0.1792    0.0000 C   0  0  0  0  0  0  0  0  0  0  0  0
    4.8167    1.0583    0.0000 O   0  0  0  0  0  0  0  0  0  0  0  0
    1.2542   -3.4917    0.0000 N   0  0  0  0  0  0  0  0  0  0  0  0
    5.5417   -1.0042    0.0000 O   0  0  0  0  0  0  0  0  0  0  0  0
   -1.6000   -2.6750    0.0000 O   0  0  0  0  0  0  0  0  0  0  0  0
   -1.5958   -1.0250    0.0000 O   0  0  0  0  0  0  0  0  0  0  0  0
    6.2542   -1.4167    0.0000 C   0  0  0  0  0  0  0  0  0  0  0  0
   -2.3125   -2.2625    0.0000 C   0  0  0  0  0  0  0  0  0  0  0  0
   -2.3125   -1.4375    0.0000 C   0  0  0  0  0  0  0  0  0  0  0  0
    6.2542   -2.2417    0.0000 C   0  0  0  0  0  0  0  0  0  0  0  0
    6.9667   -1.0000    0.0000 C   0  0  0  0  0  0  0  0  0  0  0  0
    7.6792   -1.4042    0.0000 C   0  0  0  0  0  0  0  0  0  0  0  0
    6.9667   -2.6500    0.0000 C   0  0  0  0  0  0  0  0  0  0  0  0
    7.6792   -2.2375    0.0000 C   0  0  0  0  0  0  0  0  0  0  0  0
  2  1  1  0
  3  6  1  0
  4  2  2  0
  5  1  2  0
  6  5  1  0
  7  1  1  0
  8 16  1  0
  9  3  2  0
 10  6  2  0
 11  8  1  0
 12 13  2  0
 13 10  1  0
 14  7  1  0
 15  7  1  0
 16 15  1  0
 17 14  1  0
 18 11  1  0
 19 11  2  0
 20  4  1  0
 21 18  1  0
 22 12  1  0
 23 13  1  0
 24 21  1  0
 25 22  1  0
 26 23  1  0
 27 24  2  0
 28 24  1  0
 29 28  2  0
 30 27  1  0
 31 29  1  0
  3  4  1  0
 17  8  1  0
  9 12  1  0
 30 31  2  0
M  END

> <chembl_id>
CHEMBL6366

> <chembl_pref_name>
None

$$$$

     RDKit          2D

 79 89  0  0  1  0  0  0  0  0999 V2000
   19.6250   -1.8042    0.0000 C   0  0  0  0  0  0  0  0  0  0  0  0
    5.7542   -6.0667    0.0000 C   0  0  0  0  0  0  0  0  0  0  0  0
   18.6042   -2.1042    0.0000 O   0  0  0  0  0  0  0  0  0  0  0  0
   13.5125   -5.0750    0.0000 C   0  0  0  0  0  0  0  0  0  0  0  0
    4.8500   -5.5375    0.0000 O   0  0  0  0  0  0  0  0  0  0  0  0
   20.3417   -2.5500    0.0000 C   0  0  0  0  0  0  0  0  0  0  0  0
   10.9167   -6.8042    0.0000 O   0  0  0  0  0  0  0  0  0  0  0  0
   12.5875   -4.5625    0.0000 O   0  0  0  0  0  0  0  0  0  0  0  0
    3.9500   -6.0667    0.0000 C   0  0  0  0  0  0  0  0  0  0  0  0
    3.9500   -7.1292    0.0000 C   0  0  0  0  0  0  0  0  0  0  0  0
   11.7042   -5.1167    0.0000 C   0  0  0  0  0  0  0  0  0  0  0  0
   14.4167   -6.6000    0.0000 O   0  0  0  0  0  0  0  0  0  0  0  0
   11.7042   -6.1375    0.0000 C   0  0  0  0  0  0  0  0  0  0  0  0
    5.7542   -7.1125    0.0000 C   0  0  0  0  0  0  0  0  0  0  0  0
    3.0667   -5.5375    0.0000 C   0  0  0  0  0  0  0  0  0  0  0  0
   13.5375   -6.0667    0.0000 C   0  0  0  0  0  0  0  0  0  0  0  0
   15.3417   -6.0667    0.0000 C   0  0  0  0  0  0  0  0  0  0  0  0
    6.6542   -7.6167    0.0000 O   0  0  0  0  0  0  0  0  0  0  0  0
   16.0542   -4.3792    0.0000 O   0  0  0  0  0  0  0  0  0  0  0  0
    8.3917   -5.4417    0.0000 O   0  0  0  0  0  0  0  0  0  0  0  0
    9.9000   -6.5792    0.0000 C   0  0  0  0  0  0  0  0  0  0  0  0
   18.3542   -3.1042    0.0000 C   0  0  0  0  0  0  0  0  0  0  0  0
   15.3167   -5.0917    0.0000 C   0  0  0  0  0  0  0  0  0  0  0  0
   18.7917   -4.8417    0.0000 O   0  0  0  0  0  0  0  0  0  0  0  0
    3.0667   -7.6417    0.0000 O   0  0  0  0  0  0  0  0  0  0  0  0
   19.0667   -3.8417    0.0000 C   0  0  0  0  0  0  0  0  0  0  0  0
    7.5792   -6.0917    0.0000 C   0  0  0  0  0  0  0  0  0  0  0  0
    2.1875   -7.1125    0.0000 C   0  0  0  0  0  0  0  0  0  0  0  0
   21.3625   -2.2917    0.0000 O   0  0  0  0  0  0  0  0  0  0  0  0
   17.0792   -4.3792    0.0000 C   0  0  0  0  0  0  0  0  0  0  0  0
    7.5792   -7.0875    0.0000 C   0  0  0  0  0  0  0  0  0  0  0  0
   14.4167   -4.5625    0.0000 C   0  0  0  0  0  0  0  0  0  0  0  0
    6.6542   -5.5542    0.0000 C   0  0  0  0  0  0  0  0  0  0  0  0
    2.1875   -6.0667    0.0000 C   0  0  0  0  0  0  0  0  0  0  0  0
    9.4125   -5.6750    0.0000 C   0  0  0  0  0  0  0  0  0  0  0  0
   19.8792   -0.8125    0.0000 C   0  0  0  0  0  0  0  0  0  0  0  0
   20.0667   -3.5667    0.0000 C   0  0  0  0  0  0  0  0  0  0  0  0
    4.8500   -7.6417    0.0000 C   0  0  0  0  0  0  0  0  0  0  0  0
   12.6292   -6.6417    0.0000 C   0  0  0  0  0  0  0  0  0  0  0  0
   17.3292   -3.4042    0.0000 C   0  0  0  0  0  0  0  0  0  0  0  0
   17.7917   -5.0917    0.0000 C   0  0  0  0  0  0  0  0  0  0  0  0
    9.4125   -7.5042    0.0000 C   0  0  0  0  0  0  0  0  0  0  0  0
   21.6625   -1.3000    0.0000 C   0  0  0  0  0  0  0  0  0  0  0  0
   20.8750   -0.5125    0.0000 C   0  0  0  0  0  0  0  0  0  0  0  0
    8.3917   -7.7375    0.0000 C   0  0  0  0  0  0  0  0  0  0  0  0
   10.8667   -4.4417    0.0000 C   0  0  0  0  0  0  0  0  0  0  0  0
   23.3792   -1.8292    0.0000 C   0  0  0  0  0  0  0  0  0  0  0  0
   17.8167   -6.0667    0.0000 C   0  0  0  0  0  0  0  0  0  0  0  0
   17.1000   -6.8042    0.0000 C   0  0  0  0  0  0  0  0  0  0  0  0
    1.2375   -7.5917    0.0000 O   0  0  0  0  0  0  0  0  0  0  0  0
    9.8542   -4.7042    0.0000 C   0  0  0  0  0  0  0  0  0  0  0  0
   22.6792   -1.0917    0.0000 C   0  0  0  0  0  0  0  0  0  0  0  0
   23.7667   -3.5667    0.0000 O   0  0  0  0  0  0  0  0  0  0  0  0
   24.3917   -1.6000    0.0000 C   0  0  0  0  0  0  0  0  0  0  0  0
   23.0542   -2.8250    0.0000 C   0  0  0  0  0  0  0  0  0  0  0  0
   16.0792   -6.8042    0.0000 C   0  0  0  0  0  0  0  0  0  0  0  0
   18.8375   -1.1125    0.0000 C   0  0  0  0  0  0  0  0  0  0  0  0
   19.1417   -0.0917    0.0000 O   0  0  0  0  0  0  0  0  0  0  0  0
    5.7542   -5.0250    0.0000 C   0  0  0  0  0  0  0  0  0  0  0  0
   13.5125   -4.1000    0.0000 C   0  0  0  0  0  0  0  0  0  0  0  0
    3.0667   -4.4417    0.0000 C   0  0  0  0  0  0  0  0  0  0  0  0
   11.7042   -4.0792    0.0000 C   0  0  0  0  0  0  0  0  0  0  0  0
   15.3167   -7.0875    0.0000 C   0  0  0  0  0  0  0  0  0  0  0  0
   10.1042   -8.3625    0.0000 C   0  0  0  0  0  0  0  0  0  0  0  0
   18.5125   -5.8792    0.0000 H   0  0  0  0  0  0  0  0  0  0  0  0
   17.5875   -2.4292    0.0000 H   0  0  0  0  0  0  0  0  0  0  0  0
    3.9500   -8.1750    0.0000 H   0  0  0  0  0  0  0  0  0  0  0  0
   11.7042   -7.1792    0.0000 H   0  0  0  0  0  0  0  0  0  0  0  0
    7.5792   -5.0500    0.0000 H   0  0  0  0  0  0  0  0  0  0  0  0
   10.5167   -7.3667    0.0000 H   0  0  0  0  0  0  0  0  0  0  0  0
   13.5125   -7.1292    0.0000 H   0  0  0  0  0  0  0  0  0  0  0  0
    7.6042   -8.1292    0.0000 H   0  0  0  0  0  0  0  0  0  0  0  0
   19.7417   -4.4417    0.0000 H   0  0  0  0  0  0  0  0  0  0  0  0
    5.7542   -8.1542    0.0000 H   0  0  0  0  0  0  0  0  0  0  0  0
    8.8792   -4.8167    0.0000 H   0  0  0  0  0  0  0  0  0  0  0  0
   15.3167   -4.0792    0.0000 H   0  0  0  0  0  0  0  0  0  0  0  0
   16.4750   -3.5667    0.0000 H   0  0  0  0  0  0  0  0  0  0  0  0
   21.2000   -3.2167    0.0000 H   0  0  0  0  0  0  0  0  0  0  0  0
    3.9500   -5.1167    0.0000 H   0  0  0  0  0  0  0  0  0  0  0  0
  2 33  1  0
  3  1  1  0
  4 32  1  0
  5  2  1  0
  6  1  1  0
  7 13  1  0
  8  4  1  0
  9  5  1  0
 10 38  1  0
 11  8  1  0
 12 17  1  0
 13 39  1  0
 14 18  1  0
 15  9  1  0
 16  4  1  0
 17 23  1  0
 18 31  1  0
 19 30  1  0
 20 35  1  0
 21  7  1  0
 22  3  1  0
 23 19  1  0
 24 26  1  0
 25 10  1  0
 26 37  1  0
 27 20  1  0
 28 25  1  0
 29  6  1  0
 30 40  1  0
 31 45  1  0
 32 23  1  0
 33 27  1  0
 34 15  2  0
 35 51  1  0
 36  1  1  0
 37  6  1  0
 38 14  1  0
 39 16  1  0
 40 22  1  0
 41 24  1  0
 42 21  1  0
 43 44  1  0
 44 36  1  0
 45 42  1  0
 46 11  1  0
 47 52  1  0
 48 41  1  0
 49 48  2  0
 50 28  2  0
 51 46  1  0
 43 52  1  6
 53 55  2  0
 54 47  2  0
 55 47  1  0
 56 49  1  0
  1 57  1  6
 36 58  1  1
  2 59  1  6
  4 60  1  6
 61 15  1  0
 11 62  1  6
 17 63  1  1
 42 64  1  6
 41 65  1  1
 22 66  1  6
 10 67  1  1
 13 68  1  1
 27 69  1  6
 21 70  1  1
 16 71  1  1
 31 72  1  1
 26 73  1  1
 14 74  1  1
 35 75  1  6
 23 76  1  6
 30 77  1  6
  6 78  1  1
  9 79  1  6
 29 43  1  0
 22 26  1  0
 30 41  1  0
 17 56  1  0
 12 16  1  0
 11 13  1  0
 21 35  1  0
 27 31  1  0
  2 14  1  0
  9 10  1  0
 28 34  1  0
M  END

> <chembl_id>
CHEMBL216458

> <chembl_pref_name>
ALPHA-BUNGAROTOXIN

$$$$

     RDKit          2D

 12 13  0  0  1  0  0  0  0  0999 V2000
    4.1955    0.2934    0.0000 C   0  0  0  0  0  0  0  0  0  0  0  0
    3.9511   -0.8815    0.0000 N   0  0  0  0  0  0  0  0  0  0  0  0
    4.9531   -1.9978    0.0000 C   0  0  0  0  0  0  0  0  0  0  0  0
    4.2010   -3.2956    0.0000 C   0  0  0  0  0  0  0  0  0  0  0  0
    2.7343   -2.9815    0.0000 C   0  0  0  0  0  0  0  0  0  0  0  0
    2.5987   -1.5004    0.0000 C   0  0  0  0  0  0  0  0  0  0  0  0
    1.2990   -0.7500    0.0000 C   0  0  0  0  0  0  0  0  0  0  0  0
    1.2990    0.7500    0.0000 C   0  0  0  0  0  0  0  0  0  0  0  0
    0.0000    1.5000    0.0000 C   0  0  0  0  0  0  0  0  0  0  0  0
   -1.2990    0.7500    0.0000 C   0  0  0  0  0  0  0  0  0  0  0  0
   -1.2990   -0.7500    0.0000 N   0  0  0  0  0  0  0  0  0  0  0  0
    0.0000   -1.5000    0.0000 C   0  0  0  0  0  0  0  0  0  0  0  0
  1  2  1  0
  2  3  1  0
  3  4  1  0
  4  5  1  0
  5  6  1  0
  6  2  1  0
  6  7  1  1
  7  8  2  0
  8  9  1  0
  9 10  2  0
 10 11  1  0
 11 12  2  0
 12  7  1  0
M  END

> <chembl_id>
CHEMBL3

> <chembl_pref_name>
NICOTINE

$$$$

     RDKit          2D

 11 12  0  0  1  0  0  0  0  0999 V2000
    4.2010   -3.2956    0.0000 C   0  0  0  0  0  0  0  0  0  0  0  0
    4.9531   -1.9978    0.0000 C   0  0  0  0  0  0  0  0  0  0  0  0
    3.9511   -0.8815    0.0000 N   0  0  0  0  0  0  0  0  0  0  0  0
    2.5987   -1.5004    0.0000 C   0  0  0  0  0  0  0  0  0  0  0  0
    2.7343   -2.9815    0.0000 C   0  0  0  0  0  0  0  0  0  0  0  0
    1.2990   -0.7500    0.0000 C   0  0  0  0  0  0  0  0  0  0  0  0
    1.2990    0.7500    0.0000 C   0  0  0  0  0  0  0  0  0  0  0  0
    0.0000    1.5000    0.0000 C   0  0  0  0  0  0  0  0  0  0  0  0
   -1.2990    0.7500    0.0000 C   0  0  0  0  0  0  0  0  0  0  0  0
   -1.2990   -0.7500    0.0000 N   0  0  0  0  0  0  0  0  0  0  0  0
    0.0000   -1.5000    0.0000 C   0  0  0  0  0  0  0  0  0  0  0  0
  1  2  1  0
  2  3  1  0
  3  4  1  0
  4  5  1  0
  5  1  1  0
  4  6  1  1
  6  7  2  0
  7  8  1  0
  8  9  2  0
  9 10  1  0
 10 11  2  0
 11  6  1  0
M  END

> <chembl_id>
CHEMBL6200

> <chembl_pref_name>
None

$$$$

     RDKit          2D

 44 46  0  0  0  0  0  0  0  0999 V2000
    5.9917  -19.0417    0.0000 N   0  0  0  0  0  0  0  0  0  0  0  0
    6.7042  -19.4625    0.0000 C   0  0  0  0  0  0  0  0  0  0  0  0
    4.0292  -19.6542    0.0000 N   0  0  0  0  0  0  0  0  0  0  0  0
    3.3125  -19.2417    0.0000 C   0  0  0  0  0  0  0  0  0  0  0  0
    7.4250  -19.0417    0.0000 C   0  0  0  0  0  0  0  0  0  0  0  0
    2.5917  -19.6625    0.0000 C   0  0  0  0  0  0  0  0  0  0  0  0
    5.5792  -19.7625    0.0000 C   0  0  0  0  0  0  0  0  0  0  0  0
    1.1542  -20.4917    0.0000 C   0  0  0  0  0  0  0  0  0  0  0  0
    8.8542  -18.2042    0.0000 C   0  0  0  0  0  0  0  0  0  0  0  0
    4.6667  -19.4292    0.0000 C   0  0  0  0  0  0  0  0  0  0  0  0
    5.6250  -21.9417    0.0000 C   0  0  0  0  0  0  0  0  0  0  0  0
    8.8542  -19.0292    0.0000 C   0  0  0  0  0  0  0  0  0  0  0  0
    1.1542  -19.6667    0.0000 C   0  0  0  0  0  0  0  0  0  0  0  0
    8.1292  -17.7917    0.0000 C   0  0  0  0  0  0  0  0  0  0  0  0
    1.8750  -20.9125    0.0000 C   0  0  0  0  0  0  0  0  0  0  0  0
    5.3125  -19.2667    0.0000 C   0  0  0  0  0  0  0  0  0  0  0  0
    7.4167  -18.2167    0.0000 C   0  0  0  0  0  0  0  0  0  0  0  0
    8.1417  -19.4542    0.0000 C   0  0  0  0  0  0  0  0  0  0  0  0
    1.8750  -19.2500    0.0000 C   0  0  0  0  0  0  0  0  0  0  0  0
    2.5917  -20.4917    0.0000 C   0  0  0  0  0  0  0  0  0  0  0  0
    5.1000  -22.5792    0.0000 N   0  0  0  0  0  0  0  0  0  0  0  0
    4.4417  -18.9292    0.0000 C   0  0  0  0  0  0  0  0  0  0  0  0
    6.7042  -20.2875    0.0000 O   0  0  0  0  0  0  0  0  0  0  0  0
    3.3042  -18.4167    0.0000 O   0  0  0  0  0  0  0  0  0  0  0  0
    5.8667  -20.5375    0.0000 C   0  0  0  0  0  0  0  0  0  0  0  0
    5.3417  -21.1667    0.0000 O   0  0  0  0  0  0  0  0  0  0  0  0
    6.4375  -22.0875    0.0000 O   0  0  0  0  0  0  0  0  0  0  0  0
    5.3792  -23.3542    0.0000 C   0  0  0  0  0  0  0  0  0  0  0  0
    0.4375  -20.9125    0.0000 O   0  0  0  0  0  0  0  0  0  0  0  0
    9.5667  -17.7875    0.0000 O   0  0  0  0  0  0  0  0  0  0  0  0
    1.8750  -21.7417    0.0000 O   0  0  0  0  0  0  0  0  0  0  0  0
    8.1167  -16.9667    0.0000 O   0  0  0  0  0  0  0  0  0  0  0  0
    0.4417  -19.2542    0.0000 O   0  0  0  0  0  0  0  0  0  0  0  0
    9.5792  -19.4500    0.0000 O   0  0  0  0  0  0  0  0  0  0  0  0
    4.8542  -23.9875    0.0000 C   0  0  0  0  0  0  0  0  0  0  0  0
    6.0917  -22.9375    0.0000 C   0  0  0  0  0  0  0  0  0  0  0  0
    6.0917  -23.7667    0.0000 C   0  0  0  0  0  0  0  0  0  0  0  0
   -0.2750  -20.4917    0.0000 C   0  0  0  0  0  0  0  0  0  0  0  0
   10.2875  -18.1917    0.0000 C   0  0  0  0  0  0  0  0  0  0  0  0
    9.5792  -20.2792    0.0000 C   0  0  0  0  0  0  0  0  0  0  0  0
    1.1542  -22.1542    0.0000 C   0  0  0  0  0  0  0  0  0  0  0  0
    0.4417  -18.4250    0.0000 C   0  0  0  0  0  0  0  0  0  0  0  0
    8.8375  -16.5417    0.0000 C   0  0  0  0  0  0  0  0  0  0  0  0
    5.1417  -24.7625    0.0000 C   0  0  0  0  0  0  0  0  0  0  0  0
  2  1  1  0
  3 22  1  0
  4  3  1  0
  5  2  1  0
  6  4  1  0
  7  1  1  0
  8 15  1  0
  9 12  2  0
 10  7  1  0
 11 26  1  0
 12 18  1  0
 13 19  1  0
 14 17  2  0
 15 20  2  0
 16  1  1  0
 17  5  1  0
 18  5  2  0
 19  6  2  0
 20  6  1  0
 21 11  1  0
 22 16  1  0
 23  2  2  0
 24  4  2  0
 25  7  1  0
 26 25  1  0
 27 11  2  0
 28 21  1  0
 29  8  1  0
 30  9  1  0
 31 15  1  0
 32 14  1  0
 33 13  1  0
 34 12  1  0
 35 28  1  0
 36 28  1  0
 37 28  1  0
 38 29  1  0
 39 30  1  0
 40 34  1  0
 41 31  1  0
 42 33  1  0
 43 32  1  0
 44 35  1  0
  3 10  1  0
  9 14  1  0
 13  8  2  0
M  END

> <chembl_id>
CHEMBL266886

> <chembl_pref_name>
None

$$$$

     RDKit          2D

 45 47  0  0  0  0  0  0  0  0999 V2000
    5.9917  -19.0417    0.0000 N   0  0  0  0  0  0  0  0  0  0  0  0
    6.7042  -19.4625    0.0000 C   0  0  0  0  0  0  0  0  0  0  0  0
    4.0292  -19.6542    0.0000 N   0  0  0  0  0  0  0  0  0  0  0  0
    3.3125  -19.2417    0.0000 C   0  0  0  0  0  0  0  0  0  0  0  0
    7.4250  -19.0417    0.0000 C   0  0  0  0  0  0  0  0  0  0  0  0
    2.5917  -19.6625    0.0000 C   0  0  0  0  0  0  0  0  0  0  0  0
    5.5792  -19.7625    0.0000 C   0  0  0  0  0  0  0  0  0  0  0  0
    1.1542  -20.4917    0.0000 C   0  0  0  0  0  0  0  0  0  0  0  0
    8.8542  -18.2042    0.0000 C   0  0  0  0  0  0  0  0  0  0  0  0
    4.6667  -19.4292    0.0000 C   0  0  0  0  0  0  0  0  0  0  0  0
    1.8750  -20.9125    0.0000 C   0  0  0  0  0  0  0  0  0  0  0  0
    8.8542  -19.0292    0.0000 C   0  0  0  0  0  0  0  0  0  0  0  0
    1.1542  -19.6667    0.0000 C   0  0  0  0  0  0  0  0  0  0  0  0
    8.1292  -17.7917    0.0000 C   0  0  0  0  0  0  0  0  0  0  0  0
    5.6250  -21.9417    0.0000 C   0  0  0  0  0  0  0  0  0  0  0  0
    5.3125  -19.2667    0.0000 C   0  0  0  0  0  0  0  0  0  0  0  0
    7.4167  -18.2167    0.0000 C   0  0  0  0  0  0  0  0  0  0  0  0
    8.1417  -19.4542    0.0000 C   0  0  0  0  0  0  0  0  0  0  0  0
    1.8750  -19.2500    0.0000 C   0  0  0  0  0  0  0  0  0  0  0  0
    2.5917  -20.4917    0.0000 C   0  0  0  0  0  0  0  0  0  0  0  0
    4.4417  -18.9292    0.0000 C   0  0  0  0  0  0  0  0  0  0  0  0
    5.1000  -22.5792    0.0000 N   0  0  0  0  0  0  0  0  0  0  0  0
    6.7042  -20.2875    0.0000 O   0  0  0  0  0  0  0  0  0  0  0  0
    3.3042  -18.4167    0.0000 O   0  0  0  0  0  0  0  0  0  0  0  0
    5.8667  -20.5375    0.0000 C   0  0  0  0  0  0  0  0  0  0  0  0
    5.3417  -21.1667    0.0000 O   0  0  0  0  0  0  0  0  0  0  0  0
    6.4375  -22.0875    0.0000 O   0  0  0  0  0  0  0  0  0  0  0  0
    5.3792  -23.3542    0.0000 C   0  0  0  0  0  0  0  0  0  0  0  0
    0.4375  -20.9125    0.0000 O   0  0  0  0  0  0  0  0  0  0  0  0
    9.5667  -17.7875    0.0000 O   0  0  0  0  0  0  0  0  0  0  0  0
    1.8750  -21.7417    0.0000 O   0  0  0  0  0  0  0  0  0  0  0  0
    8.1167  -16.9667    0.0000 O   0  0  0  0  0  0  0  0  0  0  0  0
    0.4417  -19.2542    0.0000 O   0  0  0  0  0  0  0  0  0  0  0  0
    9.5792  -19.4500    0.0000 O   0  0  0  0  0  0  0  0  0  0  0  0
    4.8542  -23.9875    0.0000 C   0  0  0  0  0  0  0  0  0  0  0  0
    5.1417  -24.7625    0.0000 C   0  0  0  0  0  0  0  0  0  0  0  0
    6.1917  -23.4917    0.0000 C   0  0  0  0  0  0  0  0  0  0  0  0
   -0.2750  -20.4917    0.0000 C   0  0  0  0  0  0  0  0  0  0  0  0
   10.2875  -18.1917    0.0000 C   0  0  0  0  0  0  0  0  0  0  0  0
    9.5792  -20.2792    0.0000 C   0  0  0  0  0  0  0  0  0  0  0  0
    1.1542  -22.1542    0.0000 C   0  0  0  0  0  0  0  0  0  0  0  0
    0.4417  -18.4250    0.0000 C   0  0  0  0  0  0  0  0  0  0  0  0
    8.8375  -16.5417    0.0000 C   0  0  0  0  0  0  0  0  0  0  0  0
    4.6167  -25.3917    0.0000 C   0  0  0  0  0  0  0  0  0  0  0  0
    5.9542  -24.9042    0.0000 C   0  0  0  0  0  0  0  0  0  0  0  0
  2  1  1  0
  3 21  1  0
  4  3  1  0
  5  2  1  0
  6  4  1  0
  7  1  1  0
  8 11  1  0
  9 12  2  0
 10  7  1  0
 11 20  2  0
 12 18  1  0
 13 19  1  0
 14 17  2  0
 15 26  1  0
 16  1  1  0
 17  5  1  0
 18  5  2  0
 19  6  2  0
 20  6  1  0
 21 16  1  0
 22 15  1  0
 23  2  2  0
 24  4  2  0
 25  7  1  0
 26 25  1  0
 27 15  2  0
 28 22  1  0
 29  8  1  0
 30  9  1  0
 31 11  1  0
 32 14  1  0
 33 13  1  0
 34 12  1  0
 35 28  1  0
 36 35  1  0
 37 28  1  0
 38 29  1  0
 39 30  1  0
 40 34  1  0
 41 31  1  0
 42 33  1  0
 43 32  1  0
 44 36  1  0
 45 36  1  0
  3 10  1  0
 14  9  1  0
 13  8  2  0
M  END

> <chembl_id>
CHEMBL269132

> <chembl_pref_name>
None

$$$$

     RDKit          2D

 44 46  0  0  0  0  0  0  0  0999 V2000
    5.9917  -19.0417    0.0000 N   0  0  0  0  0  0  0  0  0  0  0  0
    6.7042  -19.4625    0.0000 C   0  0  0  0  0  0  0  0  0  0  0  0
    4.0292  -19.6542    0.0000 N   0  0  0  0  0  0  0  0  0  0  0  0
    3.3125  -19.2417    0.0000 C   0  0  0  0  0  0  0  0  0  0  0  0
    7.4250  -19.0417    0.0000 C   0  0  0  0  0  0  0  0  0  0  0  0
    2.5917  -19.6625    0.0000 C   0  0  0  0  0  0  0  0  0  0  0  0
    5.5792  -19.7625    0.0000 C   0  0  0  0  0  0  0  0  0  0  0  0
    1.1542  -20.4917    0.0000 C   0  0  0  0  0  0  0  0  0  0  0  0
    8.8542  -18.2042    0.0000 C   0  0  0  0  0  0  0  0  0  0  0  0
    4.6667  -19.4292    0.0000 C   0  0  0  0  0  0  0  0  0  0  0  0
    1.8750  -20.9125    0.0000 C   0  0  0  0  0  0  0  0  0  0  0  0
    8.8542  -19.0292    0.0000 C   0  0  0  0  0  0  0  0  0  0  0  0
    1.1542  -19.6667    0.0000 C   0  0  0  0  0  0  0  0  0  0  0  0
    8.1292  -17.7917    0.0000 C   0  0  0  0  0  0  0  0  0  0  0  0
    5.6250  -21.9417    0.0000 C   0  0  0  0  0  0  0  0  0  0  0  0
    5.3125  -19.2667    0.0000 C   0  0  0  0  0  0  0  0  0  0  0  0
    7.4167  -18.2167    0.0000 C   0  0  0  0  0  0  0  0  0  0  0  0
    8.1417  -19.4542    0.0000 C   0  0  0  0  0  0  0  0  0  0  0  0
    1.8750  -19.2500    0.0000 C   0  0  0  0  0  0  0  0  0  0  0  0
    2.5917  -20.4917    0.0000 C   0  0  0  0  0  0  0  0  0  0  0  0
    4.4417  -18.9292    0.0000 C   0  0  0  0  0  0  0  0  0  0  0  0
    5.1000  -22.5792    0.0000 N   0  0  0  0  0  0  0  0  0  0  0  0
    6.7042  -20.2875    0.0000 O   0  0  0  0  0  0  0  0  0  0  0  0
    3.3042  -18.4167    0.0000 O   0  0  0  0  0  0  0  0  0  0  0  0
    5.8667  -20.5375    0.0000 C   0  0  0  0  0  0  0  0  0  0  0  0
    5.3417  -21.1667    0.0000 O   0  0  0  0  0  0  0  0  0  0  0  0
    6.4375  -22.0875    0.0000 O   0  0  0  0  0  0  0  0  0  0  0  0
    9.5667  -17.7875    0.0000 O   0  0  0  0  0  0  0  0  0  0  0  0
    0.4375  -20.9125    0.0000 O   0  0  0  0  0  0  0  0  0  0  0  0
    9.5792  -19.4500    0.0000 O   0  0  0  0  0  0  0  0  0  0  0  0
    1.8750  -21.7417    0.0000 O   0  0  0  0  0  0  0  0  0  0  0  0
    8.1167  -16.9667    0.0000 O   0  0  0  0  0  0  0  0  0  0  0  0
    0.4417  -19.2542    0.0000 O   0  0  0  0  0  0  0  0  0  0  0  0
    5.3792  -23.3542    0.0000 C   0  0  0  0  0  0  0  0  0  0  0  0
   10.2875  -18.1917    0.0000 C   0  0  0  0  0  0  0  0  0  0  0  0
   -0.2750  -20.4917    0.0000 C   0  0  0  0  0  0  0  0  0  0  0  0
    1.1542  -22.1542    0.0000 C   0  0  0  0  0  0  0  0  0  0  0  0
    0.4417  -18.4250    0.0000 C   0  0  0  0  0  0  0  0  0  0  0  0
    8.8375  -16.5417    0.0000 C   0  0  0  0  0  0  0  0  0  0  0  0
    9.5792  -20.2792    0.0000 C   0  0  0  0  0  0  0  0  0  0  0  0
    4.8542  -23.9875    0.0000 C   0  0  0  0  0  0  0  0  0  0  0  0
    6.1917  -23.4917    0.0000 C   0  0  0  0  0  0  0  0  0  0  0  0
    5.1417  -24.7625    0.0000 C   0  0  0  0  0  0  0  0  0  0  0  0
    4.6167  -25.3917    0.0000 C   0  0  0  0  0  0  0  0  0  0  0  0
  2  1  1  0
  3 21  1  0
  4  3  1  0
  5  2  1  0
  6  4  1  0
  7  1  1  0
  8 11  1  0
  9 12  2  0
 10  7  1  0
 11 20  2  0
 12 18  1  0
 13 19  1  0
 14 17  2  0
 15 26  1  0
 16  1  1  0
 17  5  1  0
 18  5  2  0
 19  6  2  0
 20  6  1  0
 21 16  1  0
 22 15  1  0
 23  2  2  0
 24  4  2  0
 25  7  1  0
 26 25  1  0
 27 15  2  0
 28  9  1  0
 29  8  1  0
 30 12  1  0
 31 11  1  0
 32 14  1  0
 33 13  1  0
 34 22  1  0
 35 28  1  0
 36 29  1  0
 37 31  1  0
 38 33  1  0
 39 32  1  0
 40 30  1  0
 41 34  1  0
 42 34  1  0
 43 41  1  0
 44 43  1  0
  3 10  1  0
  9 14  1  0
 13  8  2  0
M  END

> <chembl_id>
CHEMBL269133

> <chembl_pref_name>
None

$$$$

     RDKit          2D

 21 23  0  0  0  0  0  0  0  0999 V2000
   15.8669  -10.7246    0.0000 N   0  0  0  0  0  0  0  0  0  0  0  0
   15.8657  -11.5516    0.0000 C   0  0  0  0  0  0  0  0  0  0  0  0
   16.5802  -11.9644    0.0000 C   0  0  0  0  0  0  0  0  0  0  0  0
   16.5784  -10.3121    0.0000 C   0  0  0  0  0  0  0  0  0  0  0  0
   17.2935  -10.7210    0.0000 C   0  0  0  0  0  0  0  0  0  0  0  0
   17.2923  -11.5491    0.0000 C   0  0  0  0  0  0  0  0  0  0  0  0
   18.0073  -10.3057    0.0000 C   0  0  0  0  0  0  0  0  0  0  0  0
   18.7245  -10.7230    0.0000 N   0  0  0  0  0  0  0  0  0  0  0  0
   18.7211  -11.5491    0.0000 C   0  0  0  0  0  0  0  0  0  0  0  0
   19.4308  -11.9629    0.0000 C   0  0  0  0  0  0  0  0  0  0  0  0
   20.1486  -11.5551    0.0000 N   0  0  0  0  0  0  0  0  0  0  0  0
   20.1521  -10.7290    0.0000 C   0  0  0  0  0  0  0  0  0  0  0  0
   19.4378  -10.3107    0.0000 C   0  0  0  0  0  0  0  0  0  0  0  0
   20.8605  -11.9714    0.0000 C   0  0  0  0  0  0  0  0  0  0  0  0
   20.8559  -12.7960    0.0000 O   0  0  0  0  0  0  0  0  0  0  0  0
   21.5769  -11.5630    0.0000 C   0  0  0  0  0  0  0  0  0  0  0  0
   22.2859  -11.9833    0.0000 N   0  0  0  0  0  0  0  0  0  0  0  0
   23.0002  -11.5785    0.0000 C   0  0  0  0  0  0  0  0  0  0  0  0
   23.0091  -10.7536    0.0000 C   0  0  0  0  0  0  0  0  0  0  0  0
   22.2974  -10.3350    0.0000 C   0  0  0  0  0  0  0  0  0  0  0  0
   21.5769  -10.7416    0.0000 C   0  0  0  0  0  0  0  0  0  0  0  0
  2  3  1  0
  8 13  1  0
  9 10  1  0
 10 11  1  0
 11 12  1  0
 12 13  1  0
  3  6  2  0
 11 14  1  0
  5  7  1  0
 14 15  2  0
  8  7  1  0
 14 16  1  0
 16 17  1  0
  8  9  1  0
  1  2  2  0
  5  4  2  0
  4  1  1  0
  5  6  1  0
 16 21  1  0
 17 18  1  0
 18 19  1  0
 19 20  1  0
 20 21  1  0
M  END

> <chembl_id>
CHEMBL6346

> <chembl_pref_name>
SCR01020

$$$$

     RDKit          2D

 19 21  0  0  1  0  0  0  0  0999 V2000
    5.6042   -1.9125    0.0000 N   0  0  0  0  0  0  0  0  0  0  0  0
    4.3792   -3.0125    0.0000 N   0  0  0  0  0  0  0  0  0  0  0  0
    2.3167   -3.8000    0.0000 N   0  0  0  0  0  0  0  0  0  0  0  0
    7.9542   -2.6792    0.0000 N   0  0  0  0  0  0  0  0  0  0  0  0
    6.2292   -1.3625    0.0000 C   0  0  0  0  0  0  0  0  0  0  0  0
    7.0042   -1.6167    0.0000 C   0  0  0  0  0  0  0  0  0  0  0  0
    3.7667   -3.5625    0.0000 C   0  0  0  0  0  0  0  0  0  0  0  0
    4.2042   -2.2125    0.0000 C   0  0  0  0  0  0  0  0  0  0  0  0
    5.7792   -2.7250    0.0000 C   0  0  0  0  0  0  0  0  0  0  0  0
    5.1667   -3.2750    0.0000 C   0  0  0  0  0  0  0  0  0  0  0  0
    4.8292   -1.6542    0.0000 C   0  0  0  0  0  0  0  0  0  0  0  0
    2.9792   -3.3125    0.0000 C   0  0  0  0  0  0  0  0  0  0  0  0
    7.1667   -2.4250    0.0000 C   0  0  0  0  0  0  0  0  0  0  0  0
    1.6542   -3.3125    0.0000 C   0  0  0  0  0  0  0  0  0  0  0  0
    8.5667   -2.1292    0.0000 C   0  0  0  0  0  0  0  0  0  0  0  0
    7.6167   -1.0667    0.0000 C   0  0  0  0  0  0  0  0  0  0  0  0
    2.7292   -2.5250    0.0000 C   0  0  0  0  0  0  0  0  0  0  0  0
    8.4042   -1.3250    0.0000 C   0  0  0  0  0  0  0  0  0  0  0  0
    1.9042   -2.5250    0.0000 C   0  0  0  0  0  0  0  0  0  0  0  0
  2  8  1  0
  3 12  1  0
  4 13  1  0
  5  1  1  0
  6  5  1  0
  7  2  1  0
  8 11  1  0
  9  1  1  0
 10  9  1  0
 11  1  1  0
 12  7  1  1
 13  6  2  0
 14  3  1  0
 15 18  1  0
 16  6  1  0
 17 12  1  0
 18 16  2  0
 19 17  1  0
  2 10  1  0
  4 15  2  0
 14 19  1  0
M  END

> <chembl_id>
CHEMBL414181

> <chembl_pref_name>
None

$$$$

     RDKit          2D

 19 21  0  0  1  0  0  0  0  0999 V2000
    5.6042   -1.9125    0.0000 N   0  0  0  0  0  0  0  0  0  0  0  0
    4.3667   -3.0125    0.0000 N   0  0  0  0  0  0  0  0  0  0  0  0
    2.3125   -3.8000    0.0000 N   0  0  0  0  0  0  0  0  0  0  0  0
    8.5667   -2.1292    0.0000 N   0  0  0  0  0  0  0  0  0  0  0  0
    6.2167   -1.3625    0.0000 C   0  0  0  0  0  0  0  0  0  0  0  0
    3.7667   -3.5625    0.0000 C   0  0  0  0  0  0  0  0  0  0  0  0
    4.8167   -1.6542    0.0000 C   0  0  0  0  0  0  0  0  0  0  0  0
    4.2042   -2.2125    0.0000 C   0  0  0  0  0  0  0  0  0  0  0  0
    5.7750   -2.7250    0.0000 C   0  0  0  0  0  0  0  0  0  0  0  0
    5.1625   -3.2750    0.0000 C   0  0  0  0  0  0  0  0  0  0  0  0
    2.9792   -3.3125    0.0000 C   0  0  0  0  0  0  0  0  0  0  0  0
    7.0042   -1.6167    0.0000 C   0  0  0  0  0  0  0  0  0  0  0  0
    1.6417   -3.3125    0.0000 C   0  0  0  0  0  0  0  0  0  0  0  0
    7.9500   -2.6792    0.0000 C   0  0  0  0  0  0  0  0  0  0  0  0
    8.3917   -1.3250    0.0000 C   0  0  0  0  0  0  0  0  0  0  0  0
    7.1667   -2.4250    0.0000 C   0  0  0  0  0  0  0  0  0  0  0  0
    7.6125   -1.0667    0.0000 C   0  0  0  0  0  0  0  0  0  0  0  0
    2.7250   -2.5250    0.0000 C   0  0  0  0  0  0  0  0  0  0  0  0
    1.9000   -2.5250    0.0000 C   0  0  0  0  0  0  0  0  0  0  0  0
  2 10  1  0
  3 11  1  0
  4 15  1  0
  5  1  1  0
  6  2  1  0
  7  1  1  0
  8  7  1  0
  9  1  1  0
 10  9  1  0
 11  6  1  1
 12  5  1  0
 13  3  1  0
 14 16  1  0
 15 17  2  0
 16 12  2  0
 17 12  1  0
 18 11  1  0
 19 18  1  0
  8  2  1  0
 14  4  2  0
 13 19  1  0
M  END

> <chembl_id>
CHEMBL6334

> <chembl_pref_name>
None

$$$$

     RDKit          2D

 18 20  0  0  0  0  0  0  0  0999 V2000
    6.1625   -2.4417    0.0000 C   0  0  0  0  0  0  0  0  0  0  0  0
    6.1625   -1.6167    0.0000 O   0  0  0  0  0  0  0  0  0  0  0  0
    5.4500   -1.2042    0.0000 C   0  0  0  0  0  0  0  0  0  0  0  0
    4.7375   -2.4417    0.0000 C   0  0  0  0  0  0  0  0  0  0  0  0
    5.4500   -2.8542    0.0000 C   0  0  0  0  0  0  0  0  0  0  0  0
    4.7375   -1.6167    0.0000 C   0  0  0  0  0  0  0  0  0  0  0  0
    6.8792   -2.8542    0.0000 C   0  0  0  0  0  0  0  0  0  0  0  0
    5.4500   -3.6875    0.0000 C   0  0  0  0  0  0  0  0  0  0  0  0
    4.0250   -1.2042    0.0000 C   0  0  0  0  0  0  0  0  0  0  0  0
    6.8792   -3.6875    0.0000 C   0  0  0  0  0  0  0  0  0  0  0  0
    4.0250   -2.8542    0.0000 C   0  0  0  0  0  0  0  0  0  0  0  0
    5.4500   -0.3792    0.0000 O   0  0  0  0  0  0  0  0  0  0  0  0
    6.1625   -4.1000    0.0000 C   0  0  0  0  0  0  0  0  0  0  0  0
    7.5917   -2.4375    0.0000 O   0  0  0  0  0  0  0  0  0  0  0  0
    3.3042   -2.4417    0.0000 C   0  0  0  0  0  0  0  0  0  0  0  0
    3.3042   -1.6250    0.0000 C   0  0  0  0  0  0  0  0  0  0  0  0
    2.5875   -2.8667    0.0000 F   0  0  0  0  0  0  0  0  0  0  0  0
    7.6042   -4.1042    0.0000 O   0  0  0  0  0  0  0  0  0  0  0  0
  2  1  1  0
  3  2  1  0
  4  5  1  0
  5  1  2  0
  6  4  1  0
  7  1  1  0
  8  5  1  0
  9  6  2  0
 10  7  2  0
 11  4  2  0
 12  3  2  0
 13 10  1  0
 14  7  1  0
 15 11  1  0
 16 15  2  0
 17 15  1  0
 18 10  1  0
  8 13  2  0
  6  3  1  0
  9 16  1  0
M  END

> <chembl_id>
CHEMBL263076

> <chembl_pref_name>
None

$$$$

     RDKit          2D

 19 21  0  0  0  0  0  0  0  0999 V2000
    6.4792   -2.6500    0.0000 C   0  0  0  0  0  0  0  0  0  0  0  0
    5.0542   -2.6500    0.0000 C   0  0  0  0  0  0  0  0  0  0  0  0
    6.4792   -1.8250    0.0000 O   0  0  0  0  0  0  0  0  0  0  0  0
    5.7667   -1.4125    0.0000 C   0  0  0  0  0  0  0  0  0  0  0  0
    5.0542   -1.8250    0.0000 C   0  0  0  0  0  0  0  0  0  0  0  0
    5.7667   -3.0625    0.0000 C   0  0  0  0  0  0  0  0  0  0  0  0
    7.2042   -3.0625    0.0000 C   0  0  0  0  0  0  0  0  0  0  0  0
    4.3417   -3.0625    0.0000 C   0  0  0  0  0  0  0  0  0  0  0  0
    4.3417   -1.4125    0.0000 C   0  0  0  0  0  0  0  0  0  0  0  0
    3.6292   -2.6500    0.0000 C   0  0  0  0  0  0  0  0  0  0  0  0
    3.6292   -1.8292    0.0000 C   0  0  0  0  0  0  0  0  0  0  0  0
    5.7667   -3.8917    0.0000 C   0  0  0  0  0  0  0  0  0  0  0  0
    7.2042   -3.8917    0.0000 C   0  0  0  0  0  0  0  0  0  0  0  0
    5.7667   -0.5875    0.0000 O   0  0  0  0  0  0  0  0  0  0  0  0
    6.4792   -4.3042    0.0000 C   0  0  0  0  0  0  0  0  0  0  0  0
    7.9167   -2.6417    0.0000 Cl  0  0  0  0  0  0  0  0  0  0  0  0
    7.9292   -4.3125    0.0000 Cl  0  0  0  0  0  0  0  0  0  0  0  0
    2.9042   -3.0750    0.0000 O   0  0  0  0  0  0  0  0  0  0  0  0
    2.9042   -1.4125    0.0000 O   0  0  0  0  0  0  0  0  0  0  0  0
  2  6  1  0
  3  1  1  0
  4  3  1  0
  5  2  1  0
  6  1  2  0
  7  1  1  0
  8  2  2  0
  9  5  2  0
 10  8  1  0
 11 10  2  0
 12  6  1  0
 13  7  2  0
 14  4  2  0
 15 13  1  0
 16  7  1  0
 17 13  1  0
 18 10  1  0
 19 11  1  0
 12 15  2  0
  5  4  1  0
  9 11  1  0
M  END

> <chembl_id>
CHEMBL6335

> <chembl_pref_name>
None

$$$$

     RDKit          2D

 19 21  0  0  0  0  0  0  0  0999 V2000
    6.1625   -2.4417    0.0000 C   0  0  0  0  0  0  0  0  0  0  0  0
    6.1625   -1.6167    0.0000 O   0  0  0  0  0  0  0  0  0  0  0  0
    5.4500   -2.8542    0.0000 C   0  0  0  0  0  0  0  0  0  0  0  0
    5.4500   -1.2042    0.0000 C   0  0  0  0  0  0  0  0  0  0  0  0
    4.7375   -2.4417    0.0000 C   0  0  0  0  0  0  0  0  0  0  0  0
    4.7375   -1.6167    0.0000 C   0  0  0  0  0  0  0  0  0  0  0  0
    6.8792   -2.8542    0.0000 C   0  0  0  0  0  0  0  0  0  0  0  0
    5.4500   -3.6875    0.0000 C   0  0  0  0  0  0  0  0  0  0  0  0
    6.8792   -3.6875    0.0000 C   0  0  0  0  0  0  0  0  0  0  0  0
    6.1625   -4.1000    0.0000 C   0  0  0  0  0  0  0  0  0  0  0  0
    4.0250   -1.2042    0.0000 C   0  0  0  0  0  0  0  0  0  0  0  0
    4.0250   -2.8542    0.0000 C   0  0  0  0  0  0  0  0  0  0  0  0
    5.4500   -0.3792    0.0000 O   0  0  0  0  0  0  0  0  0  0  0  0
    7.5917   -2.4375    0.0000 O   0  0  0  0  0  0  0  0  0  0  0  0
    3.3042   -2.4417    0.0000 C   0  0  0  0  0  0  0  0  0  0  0  0
    7.6042   -4.1042    0.0000 O   0  0  0  0  0  0  0  0  0  0  0  0
    3.3042   -1.6250    0.0000 C   0  0  0  0  0  0  0  0  0  0  0  0
    2.5875   -2.8667    0.0000 F   0  0  0  0  0  0  0  0  0  0  0  0
    4.7292   -4.0917    0.0000 C   0  0  0  0  0  0  0  0  0  0  0  0
  2  1  1  0
  3  1  2  0
  4  2  1  0
  5  3  1  0
  6  5  1  0
  7  1  1  0
  8  3  1  0
  9  7  2  0
 10  9  1  0
 11  6  2  0
 12  5  2  0
 13  4  2  0
 14  7  1  0
 15 12  1  0
 16  9  1  0
 17 15  2  0
 18 15  1  0
 19  8  1  0
  8 10  2  0
  4  6  1  0
 17 11  1  0
M  END

> <chembl_id>
CHEMBL6336

> <chembl_pref_name>
None

$$$$

     RDKit          2D

 19 21  0  0  0  0  0  0  0  0999 V2000
   -0.7958   -0.5667    0.0000 C   0  0  0  0  0  0  0  0  0  0  0  0
   -0.0125   -0.8250    0.0000 C   0  0  0  0  0  0  0  0  0  0  0  0
    0.4667   -0.1542    0.0000 C   0  0  0  0  0  0  0  0  0  0  0  0
   -0.7958    0.2583    0.0000 C   0  0  0  0  0  0  0  0  0  0  0  0
   -0.0125    0.5083    0.0000 C   0  0  0  0  0  0  0  0  0  0  0  0
   -1.5083   -0.9792    0.0000 C   0  0  0  0  0  0  0  0  0  0  0  0
    0.3250   -1.5792    0.0000 C   0  0  0  0  0  0  0  0  0  0  0  0
   -1.5083    0.6708    0.0000 C   0  0  0  0  0  0  0  0  0  0  0  0
    1.2917   -0.2500    0.0000 C   0  0  0  0  0  0  0  0  0  0  0  0
   -2.2250   -0.5667    0.0000 C   0  0  0  0  0  0  0  0  0  0  0  0
    1.1417   -1.6667    0.0000 C   0  0  0  0  0  0  0  0  0  0  0  0
    1.6292   -1.0042    0.0000 C   0  0  0  0  0  0  0  0  0  0  0  0
   -2.2250    0.2500    0.0000 C   0  0  0  0  0  0  0  0  0  0  0  0
    0.2417    1.2958    0.0000 N   0  0  0  0  0  0  0  0  0  0  0  0
    2.4542   -1.0917    0.0000 O   0  0  0  0  0  0  0  0  0  0  0  0
   -2.9458    0.6708    0.0000 O   0  0  0  0  0  0  0  0  0  0  0  0
   -2.9458   -0.9917    0.0000 O   0  0  0  0  0  0  0  0  0  0  0  0
    1.4875   -2.4167    0.0000 O   0  0  0  0  0  0  0  0  0  0  0  0
    1.0417    1.4708    0.0000 O   0  0  0  0  0  0  0  0  0  0  0  0
  2  1  1  0
  3  2  2  0
  4  1  1  0
  5  4  1  0
  6  1  2  0
  7  2  1  0
  8  4  2  0
  9  3  1  0
 10  6  1  0
 11  7  2  0
 12 11  1  0
 13 10  2  0
 14  5  1  0
 15 12  1  0
 16 13  1  0
 17 10  1  0
 18 11  1  0
 19 14  1  0
  3  5  1  0
  8 13  1  0
 12  9  2  0
M  END

> <chembl_id>
CHEMBL6353

> <chembl_pref_name>
None

$$$$

     RDKit          2D

 18 20  0  0  0  0  0  0  0  0999 V2000
   -1.2625   -0.3250    0.0000 C   0  0  0  0  0  0  0  0  0  0  0  0
   -0.4833   -0.5792    0.0000 C   0  0  0  0  0  0  0  0  0  0  0  0
    0.0042    0.0833    0.0000 C   0  0  0  0  0  0  0  0  0  0  0  0
   -1.2625    0.5000    0.0000 C   0  0  0  0  0  0  0  0  0  0  0  0
   -0.4833    0.7583    0.0000 C   0  0  0  0  0  0  0  0  0  0  0  0
   -1.9750   -0.7375    0.0000 C   0  0  0  0  0  0  0  0  0  0  0  0
   -0.1458   -1.3292    0.0000 C   0  0  0  0  0  0  0  0  0  0  0  0
   -1.9750    0.9125    0.0000 C   0  0  0  0  0  0  0  0  0  0  0  0
    0.8250   -0.0042    0.0000 C   0  0  0  0  0  0  0  0  0  0  0  0
   -2.6958   -0.3250    0.0000 C   0  0  0  0  0  0  0  0  0  0  0  0
    0.6792   -1.4167    0.0000 C   0  0  0  0  0  0  0  0  0  0  0  0
    1.1625   -0.7542    0.0000 C   0  0  0  0  0  0  0  0  0  0  0  0
   -2.6958    0.5000    0.0000 C   0  0  0  0  0  0  0  0  0  0  0  0
   -0.2250    1.5458    0.0000 O   0  0  0  0  0  0  0  0  0  0  0  0
    1.0167   -2.1750    0.0000 O   0  0  0  0  0  0  0  0  0  0  0  0
    1.9875   -0.8500    0.0000 O   0  0  0  0  0  0  0  0  0  0  0  0
   -3.4125    0.9125    0.0000 O   0  0  0  0  0  0  0  0  0  0  0  0
   -3.4125   -0.7417    0.0000 O   0  0  0  0  0  0  0  0  0  0  0  0
  2  1  1  0
  3  2  2  0
  4  1  1  0
  5  4  1  0
  6  1  2  0
  7  2  1  0
  8  4  2  0
  9  3  1  0
 10  6  1  0
 11  7  2  0
 12 11  1  0
 13 10  2  0
 14  5  2  0
 15 11  1  0
 16 12  1  0
 17 13  1  0
 18 10  1  0
  3  5  1  0
  8 13  1  0
 12  9  2  0
M  END

> <chembl_id>
CHEMBL6345

> <chembl_pref_name>
None

$$$$

     RDKit          2D

 19 21  0  0  0  0  0  0  0  0999 V2000
    6.5417   -2.6542    0.0000 C   0  0  0  0  0  0  0  0  0  0  0  0
    5.1167   -2.6542    0.0000 C   0  0  0  0  0  0  0  0  0  0  0  0
    6.5417   -1.8292    0.0000 O   0  0  0  0  0  0  0  0  0  0  0  0
    5.8292   -1.4167    0.0000 C   0  0  0  0  0  0  0  0  0  0  0  0
    5.1167   -1.8292    0.0000 C   0  0  0  0  0  0  0  0  0  0  0  0
    5.8292   -3.0667    0.0000 C   0  0  0  0  0  0  0  0  0  0  0  0
    7.2667   -3.0667    0.0000 C   0  0  0  0  0  0  0  0  0  0  0  0
    4.4042   -3.0667    0.0000 C   0  0  0  0  0  0  0  0  0  0  0  0
    4.4042   -1.4167    0.0000 C   0  0  0  0  0  0  0  0  0  0  0  0
    3.6917   -2.6542    0.0000 C   0  0  0  0  0  0  0  0  0  0  0  0
    3.6917   -1.8292    0.0000 C   0  0  0  0  0  0  0  0  0  0  0  0
    5.8292   -3.8917    0.0000 C   0  0  0  0  0  0  0  0  0  0  0  0
    7.2667   -3.8917    0.0000 C   0  0  0  0  0  0  0  0  0  0  0  0
    5.8292   -0.5917    0.0000 O   0  0  0  0  0  0  0  0  0  0  0  0
    6.5417   -4.3042    0.0000 C   0  0  0  0  0  0  0  0  0  0  0  0
    7.9792   -2.6500    0.0000 F   0  0  0  0  0  0  0  0  0  0  0  0
    7.9917   -4.3042    0.0000 F   0  0  0  0  0  0  0  0  0  0  0  0
    2.9667   -3.0667    0.0000 O   0  0  0  0  0  0  0  0  0  0  0  0
    2.9667   -1.4167    0.0000 O   0  0  0  0  0  0  0  0  0  0  0  0
  2  6  1  0
  3  1  1  0
  4  3  1  0
  5  2  1  0
  6  1  2  0
  7  1  1  0
  8  2  2  0
  9  5  2  0
 10  8  1  0
 11 10  2  0
 12  6  1  0
 13  7  2  0
 14  4  2  0
 15 13  1  0
 16  7  1  0
 17 13  1  0
 18 10  1  0
 19 11  1  0
 12 15  2  0
  5  4  1  0
  9 11  1  0
M  END

> <chembl_id>
CHEMBL268770

> <chembl_pref_name>
None

$$$$

     RDKit          2D

 18 20  0  0  0  0  0  0  0  0999 V2000
    4.7375   -2.6417    0.0000 C   0  0  0  0  0  0  0  0  0  0  0  0
    5.4500   -3.0542    0.0000 C   0  0  0  0  0  0  0  0  0  0  0  0
    5.4500   -1.4042    0.0000 C   0  0  0  0  0  0  0  0  0  0  0  0
    6.1625   -2.6417    0.0000 C   0  0  0  0  0  0  0  0  0  0  0  0
    6.1625   -1.8167    0.0000 O   0  0  0  0  0  0  0  0  0  0  0  0
    4.7375   -1.8167    0.0000 C   0  0  0  0  0  0  0  0  0  0  0  0
    5.4500   -3.8875    0.0000 C   0  0  0  0  0  0  0  0  0  0  0  0
    6.8792   -3.0542    0.0000 C   0  0  0  0  0  0  0  0  0  0  0  0
    6.1625   -4.3000    0.0000 C   0  0  0  0  0  0  0  0  0  0  0  0
    6.8792   -3.8875    0.0000 C   0  0  0  0  0  0  0  0  0  0  0  0
    4.0250   -1.4042    0.0000 C   0  0  0  0  0  0  0  0  0  0  0  0
    4.0250   -3.0542    0.0000 C   0  0  0  0  0  0  0  0  0  0  0  0
    5.4500   -0.5792    0.0000 O   0  0  0  0  0  0  0  0  0  0  0  0
    3.3042   -2.6417    0.0000 C   0  0  0  0  0  0  0  0  0  0  0  0
    3.3042   -1.8167    0.0000 C   0  0  0  0  0  0  0  0  0  0  0  0
    6.1542   -5.1167    0.0000 O   0  0  0  0  0  0  0  0  0  0  0  0
    7.6042   -4.3000    0.0000 O   0  0  0  0  0  0  0  0  0  0  0  0
    2.5875   -3.0625    0.0000 F   0  0  0  0  0  0  0  0  0  0  0  0
  2  1  1  0
  3  6  1  0
  4  2  2  0
  5  3  1  0
  6  1  1  0
  7  2  1  0
  8  4  1  0
  9  7  2  0
 10  9  1  0
 11  6  2  0
 12  1  2  0
 13  3  2  0
 14 12  1  0
 15 14  2  0
 16  9  1  0
 17 10  1  0
 18 14  1  0
 15 11  1  0
  4  5  1  0
  8 10  2  0
M  END

> <chembl_id>
CHEMBL6349

> <chembl_pref_name>
None

$$$$

     RDKit          2D

 27 32  0  0  1  0  0  0  0  0999 V2000
    6.0155   -6.8290    0.0000 C   0  0  0  0  0  0  0  0  0  0  0  0
    8.1696   -5.6088    0.0000 C   0  0  0  0  0  0  0  0  0  0  0  0
    6.0155   -7.6540    0.0000 C   0  0  0  0  0  0  0  0  0  0  0  0
    6.7259   -6.4166    0.0000 C   0  0  0  0  0  0  0  0  0  0  0  0
    8.1525   -6.4337    0.0000 C   0  0  0  0  0  0  0  0  0  0  0  0
    7.4420   -6.8405    0.0000 C   0  0  0  0  0  0  0  0  0  0  0  0
    5.2994   -6.4166    0.0000 C   0  0  0  0  0  0  0  0  0  0  0  0
    8.9545   -5.3624    0.0000 C   0  0  0  0  0  0  0  0  0  0  0  0
    6.7201   -8.0665    0.0000 C   0  0  0  0  0  0  0  0  0  0  0  0
    4.5947   -6.8290    0.0000 C   0  0  0  0  0  0  0  0  0  0  0  0
    7.4478   -5.1905    0.0000 C   0  0  0  0  0  0  0  0  0  0  0  0
    7.4306   -7.6654    0.0000 C   0  0  0  0  0  0  0  0  0  0  0  0
    5.2994   -8.0665    0.0000 C   0  0  0  0  0  0  0  0  0  0  0  0
    6.7259   -5.5916    0.0000 C   0  0  0  0  0  0  0  0  0  0  0  0
    8.9431   -6.6915    0.0000 C   0  0  0  0  0  0  0  0  0  0  0  0
    4.5947   -7.6540    0.0000 C   0  0  0  0  0  0  0  0  0  0  0  0
    9.3555   -4.6463    0.0000 O   0  0  0  0  0  0  0  0  0  0  0  0
   10.1805   -4.6291    0.0000 C   0  0  0  0  0  0  0  0  0  0  0  0
   10.8966   -5.0358    0.0000 C   0  0  0  0  0  0  0  0  0  0  0  0
   10.8852   -4.2108    0.0000 C   0  0  0  0  0  0  0  0  0  0  0  0
    5.2822   -5.5916    0.0000 O   0  0  0  0  0  0  0  0  0  0  0  0
    9.4357   -6.0213    0.0000 C   0  0  0  0  0  0  0  0  0  0  0  0
    6.0041   -6.0041    0.0000 C   0  0  0  0  0  0  0  0  0  0  0  0
    4.5890   -6.0041    0.0000 C   0  0  0  0  0  0  0  0  0  0  0  0
    8.1639   -4.7838    0.0000 C   0  0  0  0  0  0  0  0  0  0  0  0
    3.8729   -8.0665    0.0000 O   0  0  0  0  0  0  0  0  0  0  0  0
    3.7697   -6.8319    0.0000 H   0  0  0  0  0  0  0  0  0  0  0  0
  2 11  1  0
  3  1  1  0
  4  1  1  0
  5  6  1  0
  6  4  1  0
  7  1  1  0
  8  2  1  0
  9  3  2  0
 10  7  1  0
 11 14  1  0
 12  6  1  0
 13  3  1  0
 14  4  1  0
 15  5  1  0
 16 10  1  0
  8 17  1  1
 18 17  1  0
 19 18  1  0
 20 18  1  0
 21 23  1  0
 22 15  1  0
  1 23  1  1
 24 21  1  0
  2 25  1  1
 16 26  1  1
 10 24  1  0
 16 13  1  0
 12  9  1  0
  2  5  1  0
  8 22  1  0
 19 20  1  0
 10 27  1  6
M  END

> <chembl_id>
CHEMBL413593

> <chembl_pref_name>
None

$$$$

     RDKit          2D

 25 29  0  0  1  0  0  0  0  0999 V2000
    4.3125   -4.9375    0.0000 C   0  0  0  0  0  0  0  0  0  0  0  0
    4.3125   -5.5375    0.0000 C   0  0  0  0  0  0  0  0  0  0  0  0
    5.3500   -4.9417    0.0000 C   0  0  0  0  0  0  0  0  0  0  0  0
    5.8792   -4.0417    0.0000 C   0  0  0  0  0  0  0  0  0  0  0  0
    4.8292   -4.6375    0.0000 C   0  0  0  0  0  0  0  0  0  0  0  0
    5.8667   -4.6417    0.0000 C   0  0  0  0  0  0  0  0  0  0  0  0
    4.8250   -5.8375    0.0000 C   0  0  0  0  0  0  0  0  0  0  0  0
    5.3417   -5.5417    0.0000 C   0  0  0  0  0  0  0  0  0  0  0  0
    3.7917   -5.8375    0.0000 C   0  0  0  0  0  0  0  0  0  0  0  0
    6.4500   -3.8667    0.0000 C   0  0  0  0  0  0  0  0  0  0  0  0
    5.3542   -3.7417    0.0000 C   0  0  0  0  0  0  0  0  0  0  0  0
    4.8292   -4.0375    0.0000 C   0  0  0  0  0  0  0  0  0  0  0  0
    3.7917   -4.6375    0.0000 C   0  0  0  0  0  0  0  0  0  0  0  0
    6.4417   -4.8375    0.0000 C   0  0  0  0  0  0  0  0  0  0  0  0
    6.7417   -3.3417    0.0000 O   0  0  0  0  0  0  0  0  0  0  0  0
    7.3417   -3.3375    0.0000 C   0  0  0  0  0  0  0  0  0  0  0  0
    7.8625   -3.6292    0.0000 C   0  0  0  0  0  0  0  0  0  0  0  0
    7.8542   -3.0292    0.0000 C   0  0  0  0  0  0  0  0  0  0  0  0
    3.2792   -5.5375    0.0000 C   0  0  0  0  0  0  0  0  0  0  0  0
    6.8000   -4.3542    0.0000 C   0  0  0  0  0  0  0  0  0  0  0  0
    4.8250   -6.4375    0.0000 O   0  0  0  0  0  0  0  0  0  0  0  0
    2.7542   -5.8292    0.0000 O   0  0  0  0  0  0  0  0  0  0  0  0
    3.2792   -4.9375    0.0000 C   0  0  0  0  0  0  0  0  0  0  0  0
    4.3042   -4.3375    0.0000 C   0  0  0  0  0  0  0  0  0  0  0  0
    5.8750   -3.4417    0.0000 C   0  0  0  0  0  0  0  0  0  0  0  0
  2  1  1  0
  3  5  1  0
  4 11  1  0
  5  1  1  0
  6  3  1  0
  7  2  1  0
  8  3  1  0
  9  2  2  0
 10  4  1  0
 11 12  1  0
 12  5  1  0
 13  1  1  0
 14  6  1  0
 10 15  1  1
 16 15  1  0
 17 16  1  0
 18 16  1  0
 19 23  1  0
 20 14  1  0
 21  7  2  0
 22 19  2  0
 23 13  1  0
  1 24  1  1
  4 25  1  1
 19  9  1  0
  8  7  1  0
  4  6  1  0
 10 20  1  0
 17 18  1  0
M  END

> <chembl_id>
CHEMBL267358

> <chembl_pref_name>
None

$$$$

     RDKit          2D

 19 21  0  0  0  0  0  0  0  0999 V2000
    6.5292   -2.4417    0.0000 C   0  0  0  0  0  0  0  0  0  0  0  0
    5.1042   -2.4417    0.0000 C   0  0  0  0  0  0  0  0  0  0  0  0
    6.5292   -1.6167    0.0000 O   0  0  0  0  0  0  0  0  0  0  0  0
    5.8167   -1.2042    0.0000 C   0  0  0  0  0  0  0  0  0  0  0  0
    5.1042   -1.6167    0.0000 C   0  0  0  0  0  0  0  0  0  0  0  0
    5.8167   -2.8542    0.0000 C   0  0  0  0  0  0  0  0  0  0  0  0
    7.2417   -2.8542    0.0000 C   0  0  0  0  0  0  0  0  0  0  0  0
    4.3917   -2.8542    0.0000 C   0  0  0  0  0  0  0  0  0  0  0  0
    4.3917   -1.2042    0.0000 C   0  0  0  0  0  0  0  0  0  0  0  0
    3.6667   -2.4417    0.0000 C   0  0  0  0  0  0  0  0  0  0  0  0
    3.6667   -1.6250    0.0000 C   0  0  0  0  0  0  0  0  0  0  0  0
    5.8167   -3.6875    0.0000 C   0  0  0  0  0  0  0  0  0  0  0  0
    7.2417   -3.6875    0.0000 C   0  0  0  0  0  0  0  0  0  0  0  0
    5.8167   -0.3792    0.0000 O   0  0  0  0  0  0  0  0  0  0  0  0
    6.5292   -4.1000    0.0000 C   0  0  0  0  0  0  0  0  0  0  0  0
    7.9542   -2.4417    0.0000 O   0  0  0  0  0  0  0  0  0  0  0  0
    2.9542   -2.8667    0.0000 O   0  0  0  0  0  0  0  0  0  0  0  0
    2.9542   -1.2042    0.0000 O   0  0  0  0  0  0  0  0  0  0  0  0
    7.9667   -4.1042    0.0000 O   0  0  0  0  0  0  0  0  0  0  0  0
  2  6  1  0
  3  1  1  0
  4  3  1  0
  5  2  1  0
  6  1  2  0
  7  1  1  0
  8  2  2  0
  9  5  2  0
 10  8  1  0
 11 10  2  0
 12  6  1  0
 13  7  2  0
 14  4  2  0
 15 13  1  0
 16  7  1  0
 17 10  1  0
 18 11  1  0
 19 13  1  0
 12 15  2  0
  5  4  1  0
  9 11  1  0
M  END

> <chembl_id>
CHEMBL6338

> <chembl_pref_name>
None

$$$$

     RDKit          2D

 44 46  0  0  0  0  0  0  0  0999 V2000
    5.9917  -19.0417    0.0000 N   0  0  0  0  0  0  0  0  0  0  0  0
    6.7042  -19.4625    0.0000 C   0  0  0  0  0  0  0  0  0  0  0  0
    4.0292  -19.6542    0.0000 N   0  0  0  0  0  0  0  0  0  0  0  0
    3.3125  -19.2417    0.0000 C   0  0  0  0  0  0  0  0  0  0  0  0
    7.4250  -19.0417    0.0000 C   0  0  0  0  0  0  0  0  0  0  0  0
    2.5917  -19.6625    0.0000 C   0  0  0  0  0  0  0  0  0  0  0  0
    5.5792  -19.7625    0.0000 C   0  0  0  0  0  0  0  0  0  0  0  0
    1.1542  -20.4917    0.0000 C   0  0  0  0  0  0  0  0  0  0  0  0
    8.8542  -18.2042    0.0000 C   0  0  0  0  0  0  0  0  0  0  0  0
    4.6667  -19.4292    0.0000 C   0  0  0  0  0  0  0  0  0  0  0  0
    1.8750  -20.9125    0.0000 C   0  0  0  0  0  0  0  0  0  0  0  0
    8.8542  -19.0292    0.0000 C   0  0  0  0  0  0  0  0  0  0  0  0
    1.1542  -19.6667    0.0000 C   0  0  0  0  0  0  0  0  0  0  0  0
    8.1292  -17.7917    0.0000 C   0  0  0  0  0  0  0  0  0  0  0  0
    5.6250  -21.9417    0.0000 C   0  0  0  0  0  0  0  0  0  0  0  0
    5.3125  -19.2667    0.0000 C   0  0  0  0  0  0  0  0  0  0  0  0
    7.4167  -18.2167    0.0000 C   0  0  0  0  0  0  0  0  0  0  0  0
    8.1417  -19.4542    0.0000 C   0  0  0  0  0  0  0  0  0  0  0  0
    1.8750  -19.2500    0.0000 C   0  0  0  0  0  0  0  0  0  0  0  0
    2.5917  -20.4917    0.0000 C   0  0  0  0  0  0  0  0  0  0  0  0
    4.4417  -18.9292    0.0000 C   0  0  0  0  0  0  0  0  0  0  0  0
    6.7042  -20.2875    0.0000 O   0  0  0  0  0  0  0  0  0  0  0  0
    5.1000  -22.5792    0.0000 N   0  0  0  0  0  0  0  0  0  0  0  0
    3.3042  -18.4167    0.0000 O   0  0  0  0  0  0  0  0  0  0  0  0
    5.8667  -20.5375    0.0000 C   0  0  0  0  0  0  0  0  0  0  0  0
    5.3417  -21.1667    0.0000 O   0  0  0  0  0  0  0  0  0  0  0  0
    6.4375  -22.0875    0.0000 O   0  0  0  0  0  0  0  0  0  0  0  0
    4.8542  -23.9875    0.0000 C   0  0  0  0  0  0  0  0  0  0  0  0
    5.3792  -23.3542    0.0000 C   0  0  0  0  0  0  0  0  0  0  0  0
    9.5667  -17.7875    0.0000 O   0  0  0  0  0  0  0  0  0  0  0  0
    0.4375  -20.9125    0.0000 O   0  0  0  0  0  0  0  0  0  0  0  0
    8.1167  -16.9667    0.0000 O   0  0  0  0  0  0  0  0  0  0  0  0
    0.4417  -19.2542    0.0000 O   0  0  0  0  0  0  0  0  0  0  0  0
    9.5792  -19.4500    0.0000 O   0  0  0  0  0  0  0  0  0  0  0  0
    1.8750  -21.7417    0.0000 O   0  0  0  0  0  0  0  0  0  0  0  0
    5.1417  -24.7625    0.0000 C   0  0  0  0  0  0  0  0  0  0  0  0
    4.0417  -23.8500    0.0000 C   0  0  0  0  0  0  0  0  0  0  0  0
    4.2667  -24.5667    0.0000 C   0  0  0  0  0  0  0  0  0  0  0  0
   10.2875  -18.1917    0.0000 C   0  0  0  0  0  0  0  0  0  0  0  0
   -0.2750  -20.4917    0.0000 C   0  0  0  0  0  0  0  0  0  0  0  0
    1.1542  -22.1542    0.0000 C   0  0  0  0  0  0  0  0  0  0  0  0
    0.4417  -18.4250    0.0000 C   0  0  0  0  0  0  0  0  0  0  0  0
    8.8375  -16.5417    0.0000 C   0  0  0  0  0  0  0  0  0  0  0  0
    9.5792  -20.2792    0.0000 C   0  0  0  0  0  0  0  0  0  0  0  0
  2  1  1  0
  3 21  1  0
  4  3  1  0
  5  2  1  0
  6  4  1  0
  7  1  1  0
  8 11  1  0
  9 12  2  0
 10  7  1  0
 11 20  2  0
 12 18  1  0
 13 19  1  0
 14 17  2  0
 15 26  1  0
 16  1  1  0
 17  5  1  0
 18  5  2  0
 19  6  2  0
 20  6  1  0
 21 16  1  0
 22  2  2  0
 23 15  1  0
 24  4  2  0
 25  7  1  0
 26 25  1  0
 27 15  2  0
 28 29  1  0
 29 23  1  0
 30  9  1  0
 31  8  1  0
 32 14  1  0
 33 13  1  0
 34 12  1  0
 35 11  1  0
 36 28  1  0
 37 28  1  0
 38 28  1  0
 39 30  1  0
 40 31  1  0
 41 35  1  0
 42 33  1  0
 43 32  1  0
 44 34  1  0
  3 10  1  0
  9 14  1  0
 13  8  2  0
M  END

> <chembl_id>
CHEMBL269134

> <chembl_pref_name>
None

$$$$

     RDKit          2D

 43 45  0  0  0  0  0  0  0  0999 V2000
    5.9917  -19.0417    0.0000 N   0  0  0  0  0  0  0  0  0  0  0  0
    6.7042  -19.4625    0.0000 C   0  0  0  0  0  0  0  0  0  0  0  0
    4.0292  -19.6542    0.0000 N   0  0  0  0  0  0  0  0  0  0  0  0
    3.3125  -19.2417    0.0000 C   0  0  0  0  0  0  0  0  0  0  0  0
    7.4250  -19.0417    0.0000 C   0  0  0  0  0  0  0  0  0  0  0  0
    2.5917  -19.6625    0.0000 C   0  0  0  0  0  0  0  0  0  0  0  0
    5.5792  -19.7625    0.0000 C   0  0  0  0  0  0  0  0  0  0  0  0
    1.1542  -20.4917    0.0000 C   0  0  0  0  0  0  0  0  0  0  0  0
    8.8542  -18.2042    0.0000 C   0  0  0  0  0  0  0  0  0  0  0  0
    4.6667  -19.4292    0.0000 C   0  0  0  0  0  0  0  0  0  0  0  0
    5.6250  -21.9417    0.0000 C   0  0  0  0  0  0  0  0  0  0  0  0
    8.8542  -19.0292    0.0000 C   0  0  0  0  0  0  0  0  0  0  0  0
    1.1542  -19.6667    0.0000 C   0  0  0  0  0  0  0  0  0  0  0  0
    8.1292  -17.7917    0.0000 C   0  0  0  0  0  0  0  0  0  0  0  0
    1.8750  -20.9125    0.0000 C   0  0  0  0  0  0  0  0  0  0  0  0
    5.3125  -19.2667    0.0000 C   0  0  0  0  0  0  0  0  0  0  0  0
    7.4167  -18.2167    0.0000 C   0  0  0  0  0  0  0  0  0  0  0  0
    8.1417  -19.4542    0.0000 C   0  0  0  0  0  0  0  0  0  0  0  0
    1.8750  -19.2500    0.0000 C   0  0  0  0  0  0  0  0  0  0  0  0
    2.5917  -20.4917    0.0000 C   0  0  0  0  0  0  0  0  0  0  0  0
    5.1000  -22.5792    0.0000 N   0  0  0  0  0  0  0  0  0  0  0  0
    4.4417  -18.9292    0.0000 C   0  0  0  0  0  0  0  0  0  0  0  0
    6.7042  -20.2875    0.0000 O   0  0  0  0  0  0  0  0  0  0  0  0
    3.3042  -18.4167    0.0000 O   0  0  0  0  0  0  0  0  0  0  0  0
    5.8667  -20.5375    0.0000 C   0  0  0  0  0  0  0  0  0  0  0  0
    5.3417  -21.1667    0.0000 O   0  0  0  0  0  0  0  0  0  0  0  0
    6.4375  -22.0875    0.0000 O   0  0  0  0  0  0  0  0  0  0  0  0
    5.3792  -23.3542    0.0000 C   0  0  0  0  0  0  0  0  0  0  0  0
    0.4375  -20.9125    0.0000 O   0  0  0  0  0  0  0  0  0  0  0  0
    9.5667  -17.7875    0.0000 O   0  0  0  0  0  0  0  0  0  0  0  0
    1.8750  -21.7417    0.0000 O   0  0  0  0  0  0  0  0  0  0  0  0
    8.1167  -16.9667    0.0000 O   0  0  0  0  0  0  0  0  0  0  0  0
    0.4417  -19.2542    0.0000 O   0  0  0  0  0  0  0  0  0  0  0  0
    9.5792  -19.4500    0.0000 O   0  0  0  0  0  0  0  0  0  0  0  0
    4.8542  -23.9875    0.0000 C   0  0  0  0  0  0  0  0  0  0  0  0
    6.1917  -23.4917    0.0000 C   0  0  0  0  0  0  0  0  0  0  0  0
    5.5917  -24.1500    0.0000 C   0  0  0  0  0  0  0  0  0  0  0  0
   -0.2750  -20.4917    0.0000 C   0  0  0  0  0  0  0  0  0  0  0  0
   10.2875  -18.1917    0.0000 C   0  0  0  0  0  0  0  0  0  0  0  0
    9.5792  -20.2792    0.0000 C   0  0  0  0  0  0  0  0  0  0  0  0
    1.1542  -22.1542    0.0000 C   0  0  0  0  0  0  0  0  0  0  0  0
    0.4417  -18.4250    0.0000 C   0  0  0  0  0  0  0  0  0  0  0  0
    8.8375  -16.5417    0.0000 C   0  0  0  0  0  0  0  0  0  0  0  0
  2  1  1  0
  3 22  1  0
  4  3  1  0
  5  2  1  0
  6  4  1  0
  7  1  1  0
  8 15  1  0
  9 12  2  0
 10  7  1  0
 11 26  1  0
 12 18  1  0
 13 19  1  0
 14 17  2  0
 15 20  2  0
 16  1  1  0
 17  5  1  0
 18  5  2  0
 19  6  2  0
 20  6  1  0
 21 11  1  0
 22 16  1  0
 23  2  2  0
 24  4  2  0
 25  7  1  0
 26 25  1  0
 27 11  2  0
 28 21  1  0
 29  8  1  0
 30  9  1  0
 31 15  1  0
 32 14  1  0
 33 13  1  0
 34 12  1  0
 35 28  1  0
 36 28  1  0
 37 28  1  0
 38 29  1  0
 39 30  1  0
 40 34  1  0
 41 31  1  0
 42 33  1  0
 43 32  1  0
  3 10  1  0
  9 14  1  0
 13  8  2  0
M  END

> <chembl_id>
CHEMBL6359

> <chembl_pref_name>
None

$$$$

     RDKit          2D

 45 47  0  0  0  0  0  0  0  0999 V2000
    6.0625    0.5208    0.0000 N   0  0  0  0  0  0  0  0  0  0  0  0
    6.7792    0.1083    0.0000 C   0  0  0  0  0  0  0  0  0  0  0  0
    4.1042   -0.0875    0.0000 N   0  0  0  0  0  0  0  0  0  0  0  0
    3.3792    0.3208    0.0000 C   0  0  0  0  0  0  0  0  0  0  0  0
    7.4917    0.5250    0.0000 C   0  0  0  0  0  0  0  0  0  0  0  0
    2.6667   -0.0917    0.0000 C   0  0  0  0  0  0  0  0  0  0  0  0
    5.6542   -0.1917    0.0000 C   0  0  0  0  0  0  0  0  0  0  0  0
    1.2292   -0.9292    0.0000 C   0  0  0  0  0  0  0  0  0  0  0  0
    8.9250    1.3625    0.0000 C   0  0  0  0  0  0  0  0  0  0  0  0
    4.7375    0.1333    0.0000 C   0  0  0  0  0  0  0  0  0  0  0  0
    1.9417   -1.3417    0.0000 C   0  0  0  0  0  0  0  0  0  0  0  0
    8.9292    0.5333    0.0000 C   0  0  0  0  0  0  0  0  0  0  0  0
    1.2292   -0.0917    0.0000 C   0  0  0  0  0  0  0  0  0  0  0  0
    8.2000    1.7708    0.0000 C   0  0  0  0  0  0  0  0  0  0  0  0
    5.3792    0.2958    0.0000 C   0  0  0  0  0  0  0  0  0  0  0  0
    8.2167    0.1125    0.0000 C   0  0  0  0  0  0  0  0  0  0  0  0
    7.4875    1.3500    0.0000 C   0  0  0  0  0  0  0  0  0  0  0  0
    2.6667   -0.9292    0.0000 C   0  0  0  0  0  0  0  0  0  0  0  0
    1.9417    0.3208    0.0000 C   0  0  0  0  0  0  0  0  0  0  0  0
    4.5125    0.6333    0.0000 C   0  0  0  0  0  0  0  0  0  0  0  0
    5.6417   -2.4625    0.0000 C   0  0  0  0  0  0  0  0  0  0  0  0
    6.7792   -0.7250    0.0000 O   0  0  0  0  0  0  0  0  0  0  0  0
    3.3792    1.1500    0.0000 O   0  0  0  0  0  0  0  0  0  0  0  0
    5.6500   -1.0250    0.0000 C   0  0  0  0  0  0  0  0  0  0  0  0
    5.2292   -1.7417    0.0000 O   0  0  0  0  0  0  0  0  0  0  0  0
    6.4667   -2.4667    0.0000 O   0  0  0  0  0  0  0  0  0  0  0  0
    0.5042   -1.3417    0.0000 O   0  0  0  0  0  0  0  0  0  0  0  0
    9.6417    1.7833    0.0000 O   0  0  0  0  0  0  0  0  0  0  0  0
    1.9417   -2.1750    0.0000 O   0  0  0  0  0  0  0  0  0  0  0  0
    8.1917    2.6000    0.0000 O   0  0  0  0  0  0  0  0  0  0  0  0
    0.5125    0.3125    0.0000 O   0  0  0  0  0  0  0  0  0  0  0  0
    9.6500    0.1208    0.0000 O   0  0  0  0  0  0  0  0  0  0  0  0
    5.2167   -3.1750    0.0000 C   0  0  0  0  0  0  0  0  0  0  0  0
   -0.2083   -0.9292    0.0000 C   0  0  0  0  0  0  0  0  0  0  0  0
   10.3542    1.3708    0.0000 C   0  0  0  0  0  0  0  0  0  0  0  0
    0.5125    1.1458    0.0000 C   0  0  0  0  0  0  0  0  0  0  0  0
    8.9042    3.0208    0.0000 C   0  0  0  0  0  0  0  0  0  0  0  0
    9.6542   -0.7125    0.0000 C   0  0  0  0  0  0  0  0  0  0  0  0
    1.2292   -2.5875    0.0000 C   0  0  0  0  0  0  0  0  0  0  0  0
    5.6250   -3.8917    0.0000 C   0  0  0  0  0  0  0  0  0  0  0  0
    5.6042   -6.7542    0.0000 C   0  0  0  0  0  0  0  0  0  0  0  0
    5.2000   -6.0292    0.0000 C   0  0  0  0  0  0  0  0  0  0  0  0
    5.2042   -4.6042    0.0000 C   0  0  0  0  0  0  0  0  0  0  0  0
    5.6167   -5.3250    0.0000 C   0  0  0  0  0  0  0  0  0  0  0  0
    5.1875   -7.4625    0.0000 C   0  0  0  0  0  0  0  0  0  0  0  0
  2  1  1  0
  3 20  1  0
  4  3  1  0
  5  2  1  0
  6  4  1  0
  7  1  1  0
  8 13  2  0
  9 14  1  0
 10  7  1  0
 11 18  2  0
 12 16  1  0
 13 19  1  0
 14 17  2  0
 15  1  1  0
 16  5  2  0
 17  5  1  0
 18  6  1  0
 19  6  2  0
 20 15  1  0
 21 25  1  0
 22  2  2  0
 23  4  2  0
 24  7  1  0
 25 24  1  0
 26 21  2  0
 27  8  1  0
 28  9  1  0
 29 11  1  0
 30 14  1  0
 31 13  1  0
 32 12  1  0
 33 21  1  0
 34 27  1  0
 35 28  1  0
 36 31  1  0
 37 30  1  0
 38 32  1  0
 39 29  1  0
 40 33  1  0
 41 42  1  0
 42 44  1  0
 43 40  1  0
 44 43  1  0
 45 41  1  0
  3 10  1  0
 12  9  2  0
 11  8  1  0
M  END

> <chembl_id>
CHEMBL6211

> <chembl_pref_name>
None

$$$$

     RDKit          2D

 47 49  0  0  0  0  0  0  0  0999 V2000
    6.0625    0.5208    0.0000 N   0  0  0  0  0  0  0  0  0  0  0  0
    6.7792    0.1083    0.0000 C   0  0  0  0  0  0  0  0  0  0  0  0
    4.1042   -0.0875    0.0000 N   0  0  0  0  0  0  0  0  0  0  0  0
    3.3792    0.3208    0.0000 C   0  0  0  0  0  0  0  0  0  0  0  0
    7.4917    0.5250    0.0000 C   0  0  0  0  0  0  0  0  0  0  0  0
    2.6667   -0.0917    0.0000 C   0  0  0  0  0  0  0  0  0  0  0  0
    5.6542   -0.1917    0.0000 C   0  0  0  0  0  0  0  0  0  0  0  0
    1.2292   -0.9292    0.0000 C   0  0  0  0  0  0  0  0  0  0  0  0
    8.9250    1.3625    0.0000 C   0  0  0  0  0  0  0  0  0  0  0  0
    4.7375    0.1333    0.0000 C   0  0  0  0  0  0  0  0  0  0  0  0
    1.9417   -1.3417    0.0000 C   0  0  0  0  0  0  0  0  0  0  0  0
    8.9292    0.5333    0.0000 C   0  0  0  0  0  0  0  0  0  0  0  0
    1.2292   -0.0917    0.0000 C   0  0  0  0  0  0  0  0  0  0  0  0
    8.2000    1.7708    0.0000 C   0  0  0  0  0  0  0  0  0  0  0  0
    5.3792    0.2958    0.0000 C   0  0  0  0  0  0  0  0  0  0  0  0
    8.2167    0.1125    0.0000 C   0  0  0  0  0  0  0  0  0  0  0  0
    7.4875    1.3500    0.0000 C   0  0  0  0  0  0  0  0  0  0  0  0
    2.6667   -0.9292    0.0000 C   0  0  0  0  0  0  0  0  0  0  0  0
    1.9417    0.3208    0.0000 C   0  0  0  0  0  0  0  0  0  0  0  0
    4.5125    0.6333    0.0000 C   0  0  0  0  0  0  0  0  0  0  0  0
    5.6417   -2.4625    0.0000 C   0  0  0  0  0  0  0  0  0  0  0  0
    6.7792   -0.7250    0.0000 O   0  0  0  0  0  0  0  0  0  0  0  0
    3.3792    1.1500    0.0000 O   0  0  0  0  0  0  0  0  0  0  0  0
    5.6500   -1.0250    0.0000 C   0  0  0  0  0  0  0  0  0  0  0  0
    5.2292   -1.7417    0.0000 O   0  0  0  0  0  0  0  0  0  0  0  0
    6.4667   -2.4667    0.0000 O   0  0  0  0  0  0  0  0  0  0  0  0
    0.5042   -1.3417    0.0000 O   0  0  0  0  0  0  0  0  0  0  0  0
    9.6417    1.7833    0.0000 O   0  0  0  0  0  0  0  0  0  0  0  0
    1.9417   -2.1750    0.0000 O   0  0  0  0  0  0  0  0  0  0  0  0
    8.1917    2.6000    0.0000 O   0  0  0  0  0  0  0  0  0  0  0  0
    0.5125    0.3125    0.0000 O   0  0  0  0  0  0  0  0  0  0  0  0
    9.6500    0.1208    0.0000 O   0  0  0  0  0  0  0  0  0  0  0  0
    5.2167   -3.1750    0.0000 C   0  0  0  0  0  0  0  0  0  0  0  0
   -0.2083   -0.9292    0.0000 C   0  0  0  0  0  0  0  0  0  0  0  0
   10.3542    1.3708    0.0000 C   0  0  0  0  0  0  0  0  0  0  0  0
    0.5125    1.1458    0.0000 C   0  0  0  0  0  0  0  0  0  0  0  0
    8.9042    3.0208    0.0000 C   0  0  0  0  0  0  0  0  0  0  0  0
    9.6542   -0.7125    0.0000 C   0  0  0  0  0  0  0  0  0  0  0  0
    1.2292   -2.5875    0.0000 C   0  0  0  0  0  0  0  0  0  0  0  0
    5.6250   -3.8917    0.0000 C   0  0  0  0  0  0  0  0  0  0  0  0
    5.5917   -8.1792    0.0000 C   0  0  0  0  0  0  0  0  0  0  0  0
    5.1875   -7.4625    0.0000 C   0  0  0  0  0  0  0  0  0  0  0  0
    5.2000   -6.0292    0.0000 C   0  0  0  0  0  0  0  0  0  0  0  0
    5.6042   -6.7542    0.0000 C   0  0  0  0  0  0  0  0  0  0  0  0
    5.2042   -4.6042    0.0000 C   0  0  0  0  0  0  0  0  0  0  0  0
    5.6167   -5.3250    0.0000 C   0  0  0  0  0  0  0  0  0  0  0  0
    5.1750   -8.8917    0.0000 C   0  0  0  0  0  0  0  0  0  0  0  0
  2  1  1  0
  3 20  1  0
  4  3  1  0
  5  2  1  0
  6  4  1  0
  7  1  1  0
  8 13  2  0
  9 14  1  0
 10  7  1  0
 11 18  2  0
 12 16  1  0
 13 19  1  0
 14 17  2  0
 15  1  1  0
 16  5  2  0
 17  5  1  0
 18  6  1  0
 19  6  2  0
 20 15  1  0
 21 25  1  0
 22  2  2  0
 23  4  2  0
 24  7  1  0
 25 24  1  0
 26 21  2  0
 27  8  1  0
 28  9  1  0
 29 11  1  0
 30 14  1  0
 31 13  1  0
 32 12  1  0
 33 21  1  0
 34 27  1  0
 35 28  1  0
 36 31  1  0
 37 30  1  0
 38 32  1  0
 39 29  1  0
 40 33  1  0
 41 42  1  0
 42 44  1  0
 43 46  1  0
 44 43  1  0
 45 40  1  0
 46 45  1  0
 47 41  1  0
  3 10  1  0
 12  9  2  0
 11  8  1  0
M  END

> <chembl_id>
CHEMBL266184

> <chembl_pref_name>
None

$$$$

     RDKit          2D

 39 41  0  0  0  0  0  0  0  0999 V2000
    6.9042   -1.4750    0.0000 N   0  0  0  0  0  0  0  0  0  0  0  0
    7.6167   -1.8917    0.0000 C   0  0  0  0  0  0  0  0  0  0  0  0
    4.9417   -2.0792    0.0000 N   0  0  0  0  0  0  0  0  0  0  0  0
    4.2250   -1.6750    0.0000 C   0  0  0  0  0  0  0  0  0  0  0  0
    8.3375   -1.4667    0.0000 C   0  0  0  0  0  0  0  0  0  0  0  0
    3.5042   -2.0917    0.0000 C   0  0  0  0  0  0  0  0  0  0  0  0
    6.4917   -2.1917    0.0000 C   0  0  0  0  0  0  0  0  0  0  0  0
    2.0667   -2.9250    0.0000 C   0  0  0  0  0  0  0  0  0  0  0  0
    9.7667   -0.6292    0.0000 C   0  0  0  0  0  0  0  0  0  0  0  0
    5.5792   -1.8625    0.0000 C   0  0  0  0  0  0  0  0  0  0  0  0
    2.7875   -3.3417    0.0000 C   0  0  0  0  0  0  0  0  0  0  0  0
    9.7667   -1.4625    0.0000 C   0  0  0  0  0  0  0  0  0  0  0  0
    2.0667   -2.0917    0.0000 C   0  0  0  0  0  0  0  0  0  0  0  0
    9.0417   -0.2167    0.0000 C   0  0  0  0  0  0  0  0  0  0  0  0
    6.2250   -1.7000    0.0000 C   0  0  0  0  0  0  0  0  0  0  0  0
    9.0542   -1.8792    0.0000 C   0  0  0  0  0  0  0  0  0  0  0  0
    8.3292   -0.6417    0.0000 C   0  0  0  0  0  0  0  0  0  0  0  0
    3.5042   -2.9250    0.0000 C   0  0  0  0  0  0  0  0  0  0  0  0
    2.7875   -1.6792    0.0000 C   0  0  0  0  0  0  0  0  0  0  0  0
    5.3542   -1.3625    0.0000 C   0  0  0  0  0  0  0  0  0  0  0  0
    6.4792   -4.4542    0.0000 C   0  0  0  0  0  0  0  0  0  0  0  0
    7.6167   -2.7167    0.0000 O   0  0  0  0  0  0  0  0  0  0  0  0
    4.2167   -0.8417    0.0000 O   0  0  0  0  0  0  0  0  0  0  0  0
    6.4917   -3.0167    0.0000 C   0  0  0  0  0  0  0  0  0  0  0  0
    6.0667   -3.7375    0.0000 O   0  0  0  0  0  0  0  0  0  0  0  0
    7.3125   -4.4625    0.0000 O   0  0  0  0  0  0  0  0  0  0  0  0
    1.3500   -3.3417    0.0000 O   0  0  0  0  0  0  0  0  0  0  0  0
   10.4792   -0.2167    0.0000 O   0  0  0  0  0  0  0  0  0  0  0  0
    2.7875   -4.1667    0.0000 O   0  0  0  0  0  0  0  0  0  0  0  0
    9.0292    0.6083    0.0000 O   0  0  0  0  0  0  0  0  0  0  0  0
    1.3542   -1.6792    0.0000 O   0  0  0  0  0  0  0  0  0  0  0  0
   10.4917   -1.8792    0.0000 O   0  0  0  0  0  0  0  0  0  0  0  0
    6.0625   -5.1667    0.0000 C   0  0  0  0  0  0  0  0  0  0  0  0
    0.6375   -2.9250    0.0000 C   0  0  0  0  0  0  0  0  0  0  0  0
   11.2000   -0.6250    0.0000 C   0  0  0  0  0  0  0  0  0  0  0  0
    1.3542   -0.8542    0.0000 C   0  0  0  0  0  0  0  0  0  0  0  0
    9.7500    1.0250    0.0000 C   0  0  0  0  0  0  0  0  0  0  0  0
   10.4917   -2.7042    0.0000 C   0  0  0  0  0  0  0  0  0  0  0  0
    2.0667   -4.5792    0.0000 C   0  0  0  0  0  0  0  0  0  0  0  0
  2  1  1  0
  3 20  1  0
  4  3  1  0
  5  2  1  0
  6  4  1  0
  7  1  1  0
  8 13  2  0
  9 14  1  0
 10  7  1  0
 11 18  2  0
 12 16  1  0
 13 19  1  0
 14 17  2  0
 15  1  1  0
 16  5  2  0
 17  5  1  0
 18  6  1  0
 19  6  2  0
 20 15  1  0
 21 25  1  0
 22  2  2  0
 23  4  2  0
 24  7  1  0
 25 24  1  0
 26 21  2  0
 27  8  1  0
 28  9  1  0
 29 11  1  0
 30 14  1  0
 31 13  1  0
 32 12  1  0
 33 21  1  0
 34 27  1  0
 35 28  1  0
 36 31  1  0
 37 30  1  0
 38 32  1  0
 39 29  1  0
 10  3  1  0
 12  9  2  0
  8 11  1  0
M  END

> <chembl_id>
CHEMBL6217

> <chembl_pref_name>
None

$$$$

     RDKit          2D

 47 49  0  0  0  0  0  0  0  0999 V2000
    4.7750  -17.4167    0.0000 N   0  0  0  0  0  0  0  0  0  0  0  0
    5.4917  -17.8375    0.0000 C   0  0  0  0  0  0  0  0  0  0  0  0
    2.8167  -18.0292    0.0000 N   0  0  0  0  0  0  0  0  0  0  0  0
    2.0917  -17.6167    0.0000 C   0  0  0  0  0  0  0  0  0  0  0  0
    6.2042  -17.4167    0.0000 C   0  0  0  0  0  0  0  0  0  0  0  0
    1.3792  -18.0375    0.0000 C   0  0  0  0  0  0  0  0  0  0  0  0
    4.3667  -18.1375    0.0000 C   0  0  0  0  0  0  0  0  0  0  0  0
   -0.0583  -18.8667    0.0000 C   0  0  0  0  0  0  0  0  0  0  0  0
    7.6375  -16.5792    0.0000 C   0  0  0  0  0  0  0  0  0  0  0  0
    3.4500  -17.8042    0.0000 C   0  0  0  0  0  0  0  0  0  0  0  0
    0.6542  -19.2875    0.0000 C   0  0  0  0  0  0  0  0  0  0  0  0
    7.6417  -17.4042    0.0000 C   0  0  0  0  0  0  0  0  0  0  0  0
   -0.0583  -18.0417    0.0000 C   0  0  0  0  0  0  0  0  0  0  0  0
    6.9125  -16.1667    0.0000 C   0  0  0  0  0  0  0  0  0  0  0  0
    4.4042  -20.3167    0.0000 C   0  0  0  0  0  0  0  0  0  0  0  0
    4.0917  -17.6417    0.0000 C   0  0  0  0  0  0  0  0  0  0  0  0
    6.2000  -16.5917    0.0000 C   0  0  0  0  0  0  0  0  0  0  0  0
    6.9292  -17.8292    0.0000 C   0  0  0  0  0  0  0  0  0  0  0  0
    0.6542  -17.6250    0.0000 C   0  0  0  0  0  0  0  0  0  0  0  0
    1.3792  -18.8667    0.0000 C   0  0  0  0  0  0  0  0  0  0  0  0
    3.2250  -17.3042    0.0000 C   0  0  0  0  0  0  0  0  0  0  0  0
    5.4917  -18.6625    0.0000 O   0  0  0  0  0  0  0  0  0  0  0  0
    2.0917  -16.7917    0.0000 O   0  0  0  0  0  0  0  0  0  0  0  0
    4.6500  -18.9125    0.0000 C   0  0  0  0  0  0  0  0  0  0  0  0
    4.1250  -19.5417    0.0000 O   0  0  0  0  0  0  0  0  0  0  0  0
    5.2167  -20.4625    0.0000 O   0  0  0  0  0  0  0  0  0  0  0  0
    3.8792  -20.9542    0.0000 N   0  0  0  0  0  0  0  0  0  0  0  0
    8.3542  -16.1625    0.0000 O   0  0  0  0  0  0  0  0  0  0  0  0
   -0.7833  -19.2875    0.0000 O   0  0  0  0  0  0  0  0  0  0  0  0
    8.3625  -17.8250    0.0000 O   0  0  0  0  0  0  0  0  0  0  0  0
    0.6542  -20.1167    0.0000 O   0  0  0  0  0  0  0  0  0  0  0  0
    6.9042  -15.3417    0.0000 O   0  0  0  0  0  0  0  0  0  0  0  0
   -0.7750  -17.6292    0.0000 O   0  0  0  0  0  0  0  0  0  0  0  0
    4.1667  -21.7292    0.0000 C   0  0  0  0  0  0  0  0  0  0  0  0
    9.0667  -16.5667    0.0000 C   0  0  0  0  0  0  0  0  0  0  0  0
   -1.4958  -18.8667    0.0000 C   0  0  0  0  0  0  0  0  0  0  0  0
   -0.0583  -20.5292    0.0000 C   0  0  0  0  0  0  0  0  0  0  0  0
   -0.7750  -16.8000    0.0000 C   0  0  0  0  0  0  0  0  0  0  0  0
    7.6167  -14.9167    0.0000 C   0  0  0  0  0  0  0  0  0  0  0  0
    8.3667  -18.6542    0.0000 C   0  0  0  0  0  0  0  0  0  0  0  0
    3.6417  -22.3625    0.0000 C   0  0  0  0  0  0  0  0  0  0  0  0
    3.4417  -25.9542    0.0000 C   0  0  0  0  0  0  0  0  0  0  0  0
    3.1542  -25.1792    0.0000 C   0  0  0  0  0  0  0  0  0  0  0  0
    3.6792  -24.5417    0.0000 C   0  0  0  0  0  0  0  0  0  0  0  0
    3.9250  -23.1375    0.0000 C   0  0  0  0  0  0  0  0  0  0  0  0
    3.4000  -23.7667    0.0000 C   0  0  0  0  0  0  0  0  0  0  0  0
    2.9125  -26.5875    0.0000 C   0  0  0  0  0  0  0  0  0  0  0  0
  2  1  1  0
  3 21  1  0
  4  3  1  0
  5  2  1  0
  6  4  1  0
  7  1  1  0
  8 11  1  0
  9 12  2  0
 10  7  1  0
 11 20  2  0
 12 18  1  0
 13 19  1  0
 14 17  2  0
 15 25  1  0
 16  1  1  0
 17  5  1  0
 18  5  2  0
 19  6  2  0
 20  6  1  0
 21 16  1  0
 22  2  2  0
 23  4  2  0
 24  7  1  0
 25 24  1  0
 26 15  2  0
 27 15  1  0
 28  9  1  0
 29  8  1  0
 30 12  1  0
 31 11  1  0
 32 14  1  0
 33 13  1  0
 34 27  1  0
 35 28  1  0
 36 29  1  0
 37 31  1  0
 38 33  1  0
 39 32  1  0
 40 30  1  0
 41 34  1  0
 42 43  1  0
 43 44  1  0
 44 46  1  0
 45 41  1  0
 46 45  1  0
 47 42  1  0
  3 10  1  0
 14  9  1  0
 13  8  2  0
M  END

> <chembl_id>
CHEMBL24879

> <chembl_pref_name>
None

$$$$

     RDKit          2D

 55 57  0  0  0  0  0  0  0  0999 V2000
    3.5000    2.0875    0.0000 N   0  0  0  0  0  0  0  0  0  0  0  0
    4.2167    1.6708    0.0000 C   0  0  0  0  0  0  0  0  0  0  0  0
    1.5417    1.4833    0.0000 N   0  0  0  0  0  0  0  0  0  0  0  0
    0.8167    1.8958    0.0000 C   0  0  0  0  0  0  0  0  0  0  0  0
    4.9292    2.0958    0.0000 C   0  0  0  0  0  0  0  0  0  0  0  0
    0.1042    1.4708    0.0000 C   0  0  0  0  0  0  0  0  0  0  0  0
    3.0917    1.3708    0.0000 C   0  0  0  0  0  0  0  0  0  0  0  0
   -1.3333    0.6375    0.0000 C   0  0  0  0  0  0  0  0  0  0  0  0
    6.3625    2.9333    0.0000 C   0  0  0  0  0  0  0  0  0  0  0  0
    2.1750    1.7000    0.0000 C   0  0  0  0  0  0  0  0  0  0  0  0
   -0.6208    0.2208    0.0000 C   0  0  0  0  0  0  0  0  0  0  0  0
    6.3667    2.1000    0.0000 C   0  0  0  0  0  0  0  0  0  0  0  0
   -1.3333    1.4708    0.0000 C   0  0  0  0  0  0  0  0  0  0  0  0
    5.6375    3.3375    0.0000 C   0  0  0  0  0  0  0  0  0  0  0  0
    2.8167    1.8625    0.0000 C   0  0  0  0  0  0  0  0  0  0  0  0
    5.6542    1.6833    0.0000 C   0  0  0  0  0  0  0  0  0  0  0  0
    4.9250    2.9208    0.0000 C   0  0  0  0  0  0  0  0  0  0  0  0
    0.1042    0.6375    0.0000 C   0  0  0  0  0  0  0  0  0  0  0  0
   -0.6208    1.8833    0.0000 C   0  0  0  0  0  0  0  0  0  0  0  0
    1.9500    2.2083    0.0000 C   0  0  0  0  0  0  0  0  0  0  0  0
    3.0792   -0.8917    0.0000 C   0  0  0  0  0  0  0  0  0  0  0  0
    4.2167    0.8458    0.0000 O   0  0  0  0  0  0  0  0  0  0  0  0
    0.8167    2.7208    0.0000 O   0  0  0  0  0  0  0  0  0  0  0  0
    3.0875    0.5458    0.0000 C   0  0  0  0  0  0  0  0  0  0  0  0
    2.6667   -0.1750    0.0000 O   0  0  0  0  0  0  0  0  0  0  0  0
    3.9042   -0.9000    0.0000 O   0  0  0  0  0  0  0  0  0  0  0  0
   -2.0583    0.2208    0.0000 O   0  0  0  0  0  0  0  0  0  0  0  0
    7.0792    3.3458    0.0000 O   0  0  0  0  0  0  0  0  0  0  0  0
   -0.6208   -0.6042    0.0000 O   0  0  0  0  0  0  0  0  0  0  0  0
    5.6292    4.1667    0.0000 O   0  0  0  0  0  0  0  0  0  0  0  0
   -2.0500    1.8833    0.0000 O   0  0  0  0  0  0  0  0  0  0  0  0
    7.0875    1.6833    0.0000 O   0  0  0  0  0  0  0  0  0  0  0  0
    2.6542   -1.6042    0.0000 C   0  0  0  0  0  0  0  0  0  0  0  0
   -2.7708    0.6375    0.0000 C   0  0  0  0  0  0  0  0  0  0  0  0
    7.7917    2.9375    0.0000 C   0  0  0  0  0  0  0  0  0  0  0  0
   -2.0500    2.7083    0.0000 C   0  0  0  0  0  0  0  0  0  0  0  0
    6.3417    4.5875    0.0000 C   0  0  0  0  0  0  0  0  0  0  0  0
    7.0917    0.8583    0.0000 C   0  0  0  0  0  0  0  0  0  0  0  0
   -1.3333   -1.0167    0.0000 C   0  0  0  0  0  0  0  0  0  0  0  0
    3.0625   -2.3292    0.0000 C   0  0  0  0  0  0  0  0  0  0  0  0
    3.0375  -12.3125    0.0000 C   0  0  0  0  0  0  0  0  0  0  0  0
    2.6250  -11.6000    0.0000 C   0  0  0  0  0  0  0  0  0  0  0  0
    2.6375   -4.4667    0.0000 C   0  0  0  0  0  0  0  0  0  0  0  0
    3.0417   -5.1875    0.0000 C   0  0  0  0  0  0  0  0  0  0  0  0
    2.6250   -5.8917    0.0000 C   0  0  0  0  0  0  0  0  0  0  0  0
    3.0292   -6.6125    0.0000 C   0  0  0  0  0  0  0  0  0  0  0  0
    2.6125   -7.3250    0.0000 C   0  0  0  0  0  0  0  0  0  0  0  0
    3.0250   -8.0375    0.0000 C   0  0  0  0  0  0  0  0  0  0  0  0
    2.6167   -8.7500    0.0000 C   0  0  0  0  0  0  0  0  0  0  0  0
    3.0292   -9.4625    0.0000 C   0  0  0  0  0  0  0  0  0  0  0  0
    2.6167  -10.1750    0.0000 C   0  0  0  0  0  0  0  0  0  0  0  0
    3.0292  -10.8875    0.0000 C   0  0  0  0  0  0  0  0  0  0  0  0
    2.6417   -3.0375    0.0000 C   0  0  0  0  0  0  0  0  0  0  0  0
    3.0542   -3.7542    0.0000 C   0  0  0  0  0  0  0  0  0  0  0  0
    2.6292  -13.0167    0.0000 C   0  0  0  0  0  0  0  0  0  0  0  0
  2  1  1  0
  3 20  1  0
  4  3  1  0
  5  2  1  0
  6  4  1  0
  7  1  1  0
  8 13  2  0
  9 14  1  0
 10  7  1  0
 11 18  2  0
 12 16  1  0
 13 19  1  0
 14 17  2  0
 15  1  1  0
 16  5  2  0
 17  5  1  0
 18  6  1  0
 19  6  2  0
 20 15  1  0
 21 25  1  0
 22  2  2  0
 23  4  2  0
 24  7  1  0
 25 24  1  0
 26 21  2  0
 27  8  1  0
 28  9  1  0
 29 11  1  0
 30 14  1  0
 31 13  1  0
 32 12  1  0
 33 21  1  0
 34 27  1  0
 35 28  1  0
 36 31  1  0
 37 30  1  0
 38 32  1  0
 39 29  1  0
 40 33  1  0
 41 42  1  0
 42 52  1  0
 43 54  1  0
 44 43  1  0
 45 44  1  0
 46 45  1  0
 47 46  1  0
 48 47  1  0
 49 48  1  0
 50 49  1  0
 51 50  1  0
 52 51  1  0
 53 40  1  0
 54 53  1  0
 55 41  1  0
  3 10  1  0
 12  9  2  0
  8 11  1  0
M  END

> <chembl_id>
CHEMBL227457

> <chembl_pref_name>
None

$$$$

     RDKit          2D

 21 22  0  0  0  0  0  0  0  0999 V2000
    4.3292   -5.3125    0.0000 C   0  0  0  0  0  0  0  0  0  0  0  0
    5.8667   -5.0542    0.0000 C   0  0  0  0  0  0  0  0  0  0  0  0
    4.4667   -4.3542    0.0000 C   0  0  0  0  0  0  0  0  0  0  0  0
    5.1917   -5.7500    0.0000 N   0  0  0  0  0  0  0  0  0  0  0  0
    5.4042   -4.1917    0.0000 C   0  0  0  0  0  0  0  0  0  0  0  0
    3.4667   -5.7542    0.0000 C   0  0  0  0  0  0  0  0  0  0  0  0
    6.7917   -5.3042    0.0000 C   0  0  0  0  0  0  0  0  0  0  0  0
    7.6167   -4.8250    0.0000 C   0  0  0  0  0  0  0  0  0  0  0  0
    2.7042   -5.3167    0.0000 C   0  0  0  0  0  0  0  0  0  0  0  0
    3.4667   -6.6417    0.0000 O   0  0  0  0  0  0  0  0  0  0  0  0
    7.6167   -3.8667    0.0000 O   0  0  0  0  0  0  0  0  0  0  0  0
    1.9417   -5.7542    0.0000 C   0  0  0  0  0  0  0  0  0  0  0  0
    2.7042   -4.4292    0.0000 C   0  0  0  0  0  0  0  0  0  0  0  0
    3.7917   -3.6792    0.0000 C   0  0  0  0  0  0  0  0  0  0  0  0
    5.1917   -6.7125    0.0000 C   0  0  0  0  0  0  0  0  0  0  0  0
    1.1792   -4.4292    0.0000 C   0  0  0  0  0  0  0  0  0  0  0  0
    8.5417   -5.0667    0.0000 O   0  0  0  0  0  0  0  0  0  0  0  0
    1.9417   -3.9875    0.0000 C   0  0  0  0  0  0  0  0  0  0  0  0
    1.1792   -5.3167    0.0000 C   0  0  0  0  0  0  0  0  0  0  0  0
    0.5542   -3.8042    0.0000 Cl  0  0  0  0  0  0  0  0  0  0  0  0
    4.2667   -2.8417    0.0000 O   0  0  0  0  0  0  0  0  0  0  0  0
  2  4  1  0
  3  1  2  0
  4  1  1  0
  5  3  1  0
  6  1  1  0
  7  2  1  0
  8  7  1  0
  9  6  1  0
 10  6  2  0
 11  8  2  0
 12  9  2  0
 13  9  1  0
 14  3  1  0
 15  4  1  0
 16 18  1  0
 17  8  1  0
 18 13  2  0
 19 12  1  0
 20 16  1  0
 21 14  1  0
  2  5  2  0
 16 19  2  0
M  END

> <chembl_id>
CHEMBL6201

> <chembl_pref_name>
None

$$$$

     RDKit          2D

 47 50  0  0  0  0  0  0  0  0999 V2000
    6.0875  -19.5042    0.0000 N   0  0  0  0  0  0  0  0  0  0  0  0
    6.8042  -19.9167    0.0000 C   0  0  0  0  0  0  0  0  0  0  0  0
    4.1292  -20.1125    0.0000 N   0  0  0  0  0  0  0  0  0  0  0  0
    3.4042  -19.7042    0.0000 C   0  0  0  0  0  0  0  0  0  0  0  0
    7.5167  -19.5000    0.0000 C   0  0  0  0  0  0  0  0  0  0  0  0
    2.6917  -20.1167    0.0000 C   0  0  0  0  0  0  0  0  0  0  0  0
    5.6792  -20.2167    0.0000 C   0  0  0  0  0  0  0  0  0  0  0  0
    1.2542  -20.9542    0.0000 C   0  0  0  0  0  0  0  0  0  0  0  0
    8.9500  -18.6625    0.0000 C   0  0  0  0  0  0  0  0  0  0  0  0
    4.7625  -19.8917    0.0000 C   0  0  0  0  0  0  0  0  0  0  0  0
    1.9667  -21.3667    0.0000 C   0  0  0  0  0  0  0  0  0  0  0  0
    8.9542  -19.4917    0.0000 C   0  0  0  0  0  0  0  0  0  0  0  0
    1.2542  -20.1250    0.0000 C   0  0  0  0  0  0  0  0  0  0  0  0
    8.2250  -18.2542    0.0000 C   0  0  0  0  0  0  0  0  0  0  0  0
    5.4042  -19.7292    0.0000 C   0  0  0  0  0  0  0  0  0  0  0  0
    8.2417  -19.9125    0.0000 C   0  0  0  0  0  0  0  0  0  0  0  0
    7.5125  -18.6750    0.0000 C   0  0  0  0  0  0  0  0  0  0  0  0
    2.6917  -20.9542    0.0000 C   0  0  0  0  0  0  0  0  0  0  0  0
    1.9667  -19.7042    0.0000 C   0  0  0  0  0  0  0  0  0  0  0  0
    4.5375  -19.3917    0.0000 C   0  0  0  0  0  0  0  0  0  0  0  0
    5.6667  -22.4875    0.0000 C   0  0  0  0  0  0  0  0  0  0  0  0
    6.8042  -20.7500    0.0000 O   0  0  0  0  0  0  0  0  0  0  0  0
    3.4042  -18.8750    0.0000 O   0  0  0  0  0  0  0  0  0  0  0  0
    5.6750  -21.0500    0.0000 C   0  0  0  0  0  0  0  0  0  0  0  0
    5.2542  -21.7667    0.0000 O   0  0  0  0  0  0  0  0  0  0  0  0
    6.4917  -22.4917    0.0000 O   0  0  0  0  0  0  0  0  0  0  0  0
    5.6500  -23.9167    0.0000 O   0  0  0  0  0  0  0  0  0  0  0  0
    5.2417  -23.2000    0.0000 C   0  0  0  0  0  0  0  0  0  0  0  0
    0.5292  -21.3667    0.0000 O   0  0  0  0  0  0  0  0  0  0  0  0
    9.6667  -18.2417    0.0000 O   0  0  0  0  0  0  0  0  0  0  0  0
    5.2292  -24.6292    0.0000 C   0  0  0  0  0  0  0  0  0  0  0  0
    9.6750  -19.9042    0.0000 O   0  0  0  0  0  0  0  0  0  0  0  0
    1.9667  -22.2000    0.0000 O   0  0  0  0  0  0  0  0  0  0  0  0
    8.2167  -17.4250    0.0000 O   0  0  0  0  0  0  0  0  0  0  0  0
    0.5375  -19.7125    0.0000 O   0  0  0  0  0  0  0  0  0  0  0  0
    4.4000  -26.0500    0.0000 C   0  0  0  0  0  0  0  0  0  0  0  0
    3.9792  -26.7625    0.0000 Cl  0  0  0  0  0  0  0  0  0  0  0  0
    5.6417  -25.3417    0.0000 C   0  0  0  0  0  0  0  0  0  0  0  0
    4.4125  -24.6167    0.0000 C   0  0  0  0  0  0  0  0  0  0  0  0
    3.9917  -25.3292    0.0000 C   0  0  0  0  0  0  0  0  0  0  0  0
    5.2292  -26.0542    0.0000 C   0  0  0  0  0  0  0  0  0  0  0  0
   -0.1833  -20.9542    0.0000 C   0  0  0  0  0  0  0  0  0  0  0  0
   10.3792  -18.6542    0.0000 C   0  0  0  0  0  0  0  0  0  0  0  0
    0.5375  -18.8792    0.0000 C   0  0  0  0  0  0  0  0  0  0  0  0
    8.9292  -17.0042    0.0000 C   0  0  0  0  0  0  0  0  0  0  0  0
    9.6792  -20.7375    0.0000 C   0  0  0  0  0  0  0  0  0  0  0  0
    1.2542  -22.6125    0.0000 C   0  0  0  0  0  0  0  0  0  0  0  0
  2  1  1  0
  3 20  1  0
  4  3  1  0
  5  2  1  0
  6  4  1  0
  7  1  1  0
  8 13  2  0
  9 14  1  0
 10  7  1  0
 11 18  2  0
 12 16  1  0
 13 19  1  0
 14 17  2  0
 15  1  1  0
 16  5  2  0
 17  5  1  0
 18  6  1  0
 19  6  2  0
 20 15  1  0
 21 25  1  0
 22  2  2  0
 23  4  2  0
 24  7  1  0
 25 24  1  0
 26 21  2  0
 27 28  1  0
 28 21  1  0
 29  8  1  0
 30  9  1  0
 31 27  1  0
 32 12  1  0
 33 11  1  0
 34 14  1  0
 35 13  1  0
 36 40  2  0
 37 36  1  0
 38 31  1  0
 39 31  2  0
 40 39  1  0
 41 38  2  0
 42 29  1  0
 43 30  1  0
 44 35  1  0
 45 34  1  0
 46 32  1  0
 47 33  1  0
  3 10  1  0
 12  9  2  0
  8 11  1  0
 41 36  1  0
M  END

> <chembl_id>
CHEMBL265773

> <chembl_pref_name>
None

$$$$

     RDKit          2D

 47 50  0  0  0  0  0  0  0  0999 V2000
    6.0875  -19.5042    0.0000 N   0  0  0  0  0  0  0  0  0  0  0  0
    6.8042  -19.9167    0.0000 C   0  0  0  0  0  0  0  0  0  0  0  0
    4.1292  -20.1125    0.0000 N   0  0  0  0  0  0  0  0  0  0  0  0
    3.4042  -19.7042    0.0000 C   0  0  0  0  0  0  0  0  0  0  0  0
    7.5167  -19.5000    0.0000 C   0  0  0  0  0  0  0  0  0  0  0  0
    2.6917  -20.1167    0.0000 C   0  0  0  0  0  0  0  0  0  0  0  0
    5.6792  -20.2167    0.0000 C   0  0  0  0  0  0  0  0  0  0  0  0
    1.2542  -20.9542    0.0000 C   0  0  0  0  0  0  0  0  0  0  0  0
    8.9500  -18.6625    0.0000 C   0  0  0  0  0  0  0  0  0  0  0  0
    4.7625  -19.8917    0.0000 C   0  0  0  0  0  0  0  0  0  0  0  0
    1.9667  -21.3667    0.0000 C   0  0  0  0  0  0  0  0  0  0  0  0
    8.9542  -19.4917    0.0000 C   0  0  0  0  0  0  0  0  0  0  0  0
    1.2542  -20.1250    0.0000 C   0  0  0  0  0  0  0  0  0  0  0  0
    8.2250  -18.2542    0.0000 C   0  0  0  0  0  0  0  0  0  0  0  0
    5.4042  -19.7292    0.0000 C   0  0  0  0  0  0  0  0  0  0  0  0
    8.2417  -19.9125    0.0000 C   0  0  0  0  0  0  0  0  0  0  0  0
    7.5125  -18.6750    0.0000 C   0  0  0  0  0  0  0  0  0  0  0  0
    2.6917  -20.9542    0.0000 C   0  0  0  0  0  0  0  0  0  0  0  0
    1.9667  -19.7042    0.0000 C   0  0  0  0  0  0  0  0  0  0  0  0
    4.5375  -19.3917    0.0000 C   0  0  0  0  0  0  0  0  0  0  0  0
    5.6667  -22.4875    0.0000 C   0  0  0  0  0  0  0  0  0  0  0  0
    6.8042  -20.7500    0.0000 O   0  0  0  0  0  0  0  0  0  0  0  0
    3.4042  -18.8750    0.0000 O   0  0  0  0  0  0  0  0  0  0  0  0
    5.6750  -21.0500    0.0000 C   0  0  0  0  0  0  0  0  0  0  0  0
    5.2542  -21.7667    0.0000 O   0  0  0  0  0  0  0  0  0  0  0  0
    6.4917  -22.4917    0.0000 O   0  0  0  0  0  0  0  0  0  0  0  0
    5.6500  -23.9167    0.0000 O   0  0  0  0  0  0  0  0  0  0  0  0
    5.2417  -23.2000    0.0000 C   0  0  0  0  0  0  0  0  0  0  0  0
    0.5292  -21.3667    0.0000 O   0  0  0  0  0  0  0  0  0  0  0  0
    9.6667  -18.2417    0.0000 O   0  0  0  0  0  0  0  0  0  0  0  0
    5.2292  -24.6292    0.0000 C   0  0  0  0  0  0  0  0  0  0  0  0
    9.6750  -19.9042    0.0000 O   0  0  0  0  0  0  0  0  0  0  0  0
    1.9667  -22.2000    0.0000 O   0  0  0  0  0  0  0  0  0  0  0  0
    8.2167  -17.4250    0.0000 O   0  0  0  0  0  0  0  0  0  0  0  0
    0.5375  -19.7125    0.0000 O   0  0  0  0  0  0  0  0  0  0  0  0
    4.4000  -26.0500    0.0000 C   0  0  0  0  0  0  0  0  0  0  0  0
    3.9792  -26.7625    0.0000 F   0  0  0  0  0  0  0  0  0  0  0  0
    5.6417  -25.3417    0.0000 C   0  0  0  0  0  0  0  0  0  0  0  0
    4.4125  -24.6167    0.0000 C   0  0  0  0  0  0  0  0  0  0  0  0
    3.9917  -25.3292    0.0000 C   0  0  0  0  0  0  0  0  0  0  0  0
    5.2292  -26.0542    0.0000 C   0  0  0  0  0  0  0  0  0  0  0  0
   -0.1833  -20.9542    0.0000 C   0  0  0  0  0  0  0  0  0  0  0  0
   10.3792  -18.6542    0.0000 C   0  0  0  0  0  0  0  0  0  0  0  0
    0.5375  -18.8792    0.0000 C   0  0  0  0  0  0  0  0  0  0  0  0
    8.9292  -17.0042    0.0000 C   0  0  0  0  0  0  0  0  0  0  0  0
    9.6792  -20.7375    0.0000 C   0  0  0  0  0  0  0  0  0  0  0  0
    1.2542  -22.6125    0.0000 C   0  0  0  0  0  0  0  0  0  0  0  0
  2  1  1  0
  3 20  1  0
  4  3  1  0
  5  2  1  0
  6  4  1  0
  7  1  1  0
  8 13  2  0
  9 14  1  0
 10  7  1  0
 11 18  2  0
 12 16  1  0
 13 19  1  0
 14 17  2  0
 15  1  1  0
 16  5  2  0
 17  5  1  0
 18  6  1  0
 19  6  2  0
 20 15  1  0
 21 25  1  0
 22  2  2  0
 23  4  2  0
 24  7  1  0
 25 24  1  0
 26 21  2  0
 27 28  1  0
 28 21  1  0
 29  8  1  0
 30  9  1  0
 31 27  1  0
 32 12  1  0
 33 11  1  0
 34 14  1  0
 35 13  1  0
 36 40  2  0
 37 36  1  0
 38 31  1  0
 39 31  2  0
 40 39  1  0
 41 38  2  0
 42 29  1  0
 43 30  1  0
 44 35  1  0
 45 34  1  0
 46 32  1  0
 47 33  1  0
  3 10  1  0
 12  9  2  0
  8 11  1  0
 41 36  1  0
M  END

> <chembl_id>
CHEMBL414696

> <chembl_pref_name>
None

$$$$

     RDKit          2D

 24 28  0  0  1  0  0  0  0  0999 V2000
    4.3125   -4.9375    0.0000 C   0  0  0  0  0  0  0  0  0  0  0  0
    5.8792   -4.0417    0.0000 C   0  0  0  0  0  0  0  0  0  0  0  0
    4.3125   -5.5375    0.0000 C   0  0  0  0  0  0  0  0  0  0  0  0
    4.8292   -4.6375    0.0000 C   0  0  0  0  0  0  0  0  0  0  0  0
    5.8667   -4.6417    0.0000 C   0  0  0  0  0  0  0  0  0  0  0  0
    5.3500   -4.9417    0.0000 C   0  0  0  0  0  0  0  0  0  0  0  0
    6.4500   -3.8667    0.0000 C   0  0  0  0  0  0  0  0  0  0  0  0
    3.7917   -5.8375    0.0000 C   0  0  0  0  0  0  0  0  0  0  0  0
    5.3542   -3.7417    0.0000 C   0  0  0  0  0  0  0  0  0  0  0  0
    4.8292   -4.0375    0.0000 C   0  0  0  0  0  0  0  0  0  0  0  0
    3.7917   -4.6375    0.0000 C   0  0  0  0  0  0  0  0  0  0  0  0
    5.3417   -5.5417    0.0000 C   0  0  0  0  0  0  0  0  0  0  0  0
    6.4417   -4.8375    0.0000 C   0  0  0  0  0  0  0  0  0  0  0  0
    6.7417   -3.3417    0.0000 O   0  0  0  0  0  0  0  0  0  0  0  0
    7.3417   -3.3375    0.0000 C   0  0  0  0  0  0  0  0  0  0  0  0
    4.8250   -5.8375    0.0000 C   0  0  0  0  0  0  0  0  0  0  0  0
    7.8625   -3.6292    0.0000 C   0  0  0  0  0  0  0  0  0  0  0  0
    7.8542   -3.0292    0.0000 C   0  0  0  0  0  0  0  0  0  0  0  0
    3.2792   -5.5375    0.0000 C   0  0  0  0  0  0  0  0  0  0  0  0
    6.8000   -4.3542    0.0000 C   0  0  0  0  0  0  0  0  0  0  0  0
    2.7542   -5.8292    0.0000 O   0  0  0  0  0  0  0  0  0  0  0  0
    3.2792   -4.9375    0.0000 C   0  0  0  0  0  0  0  0  0  0  0  0
    4.3042   -4.3375    0.0000 C   0  0  0  0  0  0  0  0  0  0  0  0
    5.8750   -3.4417    0.0000 C   0  0  0  0  0  0  0  0  0  0  0  0
  2  9  1  0
  3  1  1  0
  4  1  1  0
  5  6  1  0
  6  4  1  0
  7  2  1  0
  8  3  2  0
  9 10  1  0
 10  4  1  0
 11  1  1  0
 12  6  1  0
 13  5  1  0
  7 14  1  1
 15 14  1  0
 16  3  1  0
 17 15  1  0
 18 15  1  0
 19 22  1  0
 20 13  1  0
 21 19  2  0
 22 11  1  0
  1 23  1  1
  2 24  1  1
 12 16  1  0
  8 19  1  0
  2  5  1  0
  7 20  1  0
 17 18  1  0
M  END

> <chembl_id>
CHEMBL267913

> <chembl_pref_name>
None

$$$$

     RDKit          2D

 26 30  0  0  1  0  0  0  0  0999 V2000
    4.3750   -5.5667    0.0000 C   0  0  0  0  0  0  0  0  0  0  0  0
    4.3750   -4.9667    0.0000 C   0  0  0  0  0  0  0  0  0  0  0  0
    5.9417   -4.0792    0.0000 C   0  0  0  0  0  0  0  0  0  0  0  0
    4.8917   -4.6667    0.0000 C   0  0  0  0  0  0  0  0  0  0  0  0
    5.9292   -4.6792    0.0000 C   0  0  0  0  0  0  0  0  0  0  0  0
    5.4125   -4.9750    0.0000 C   0  0  0  0  0  0  0  0  0  0  0  0
    3.8542   -5.8667    0.0000 C   0  0  0  0  0  0  0  0  0  0  0  0
    4.8875   -5.8667    0.0000 C   0  0  0  0  0  0  0  0  0  0  0  0
    6.5125   -3.9000    0.0000 C   0  0  0  0  0  0  0  0  0  0  0  0
    5.4042   -5.5750    0.0000 C   0  0  0  0  0  0  0  0  0  0  0  0
    5.4167   -3.7750    0.0000 C   0  0  0  0  0  0  0  0  0  0  0  0
    3.8542   -4.6667    0.0000 C   0  0  0  0  0  0  0  0  0  0  0  0
    4.8917   -4.0667    0.0000 C   0  0  0  0  0  0  0  0  0  0  0  0
    6.5042   -4.8667    0.0000 C   0  0  0  0  0  0  0  0  0  0  0  0
    6.8042   -3.3792    0.0000 O   0  0  0  0  0  0  0  0  0  0  0  0
    7.4042   -3.3667    0.0000 C   0  0  0  0  0  0  0  0  0  0  0  0
    7.9250   -3.6625    0.0000 C   0  0  0  0  0  0  0  0  0  0  0  0
    7.9167   -3.0625    0.0000 C   0  0  0  0  0  0  0  0  0  0  0  0
    3.3417   -5.5667    0.0000 C   0  0  0  0  0  0  0  0  0  0  0  0
    6.8625   -4.3792    0.0000 C   0  0  0  0  0  0  0  0  0  0  0  0
    3.3417   -4.9667    0.0000 C   0  0  0  0  0  0  0  0  0  0  0  0
    4.3667   -4.3667    0.0000 C   0  0  0  0  0  0  0  0  0  0  0  0
    5.9375   -3.4792    0.0000 C   0  0  0  0  0  0  0  0  0  0  0  0
    3.4292   -6.2917    0.0000 C   0  0  0  0  0  0  0  0  0  0  0  0
    4.2750   -6.2917    0.0000 C   0  0  0  0  0  0  0  0  0  0  0  0
    2.8167   -5.8667    0.0000 O   0  0  0  0  0  0  0  0  0  0  0  0
  2  1  1  0
  3  5  1  0
  4  2  1  0
  5  6  1  0
  6 10  1  0
  7  1  1  0
  8  1  2  0
  9  3  1  0
 10  8  1  0
 11 13  1  0
 12  2  1  0
 13  4  1  0
 14  5  1  0
  9 15  1  1
 16 15  1  0
 17 16  1  0
 18 16  1  0
 19  7  1  0
 20 14  1  0
 21 19  1  0
  2 22  1  1
  3 23  1  1
  7 24  1  0
  7 25  1  0
 19 26  1  1
  6  4  1  0
 21 12  1  0
 11  3  1  0
  9 20  1  0
 17 18  1  0
M  END

> <chembl_id>
CHEMBL6245

> <chembl_pref_name>
None

$$$$

     RDKit          2D

 26 29  0  0  0  0  0  0  0  0999 V2000
   -0.8793    0.0317    0.0000 C   0  0  0  0  0  0  0  0  0  0  0  0
   -0.8793    0.8567    0.0000 C   0  0  0  0  0  0  0  0  0  0  0  0
   -0.1649    1.2692    0.0000 C   0  0  0  0  0  0  0  0  0  0  0  0
    0.5496    0.8567    0.0000 C   0  0  0  0  0  0  0  0  0  0  0  0
    1.2641    1.2692    0.0000 C   0  0  0  0  0  0  0  0  0  0  0  0
    1.9785    0.8567    0.0000 C   0  0  0  0  0  0  0  0  0  0  0  0
    1.9785    0.0317    0.0000 C   0  0  0  0  0  0  0  0  0  0  0  0
   -0.1649   -0.3808    0.0000 C   0  0  0  0  0  0  0  0  0  0  0  0
    0.5496    0.0317    0.0000 C   0  0  0  0  0  0  0  0  0  0  0  0
    1.2641   -0.3808    0.0000 N   0  0  0  0  0  0  0  0  0  0  0  0
    1.2641   -1.2058    0.0000 C   0  0  0  0  0  0  0  0  0  0  0  0
    0.5496   -1.6183    0.0000 C   0  0  0  0  0  0  0  0  0  0  0  0
   -0.1649   -1.2058    0.0000 O   0  0  0  0  0  0  0  0  0  0  0  0
   -1.5938   -0.3808    0.0000 N   0  0  0  0  0  0  0  0  0  0  0  0
   -1.5938   -1.2058    0.0000 C   0  0  0  0  0  0  0  0  0  0  0  0
   -2.3083   -1.6183    0.0000 C   0  0  0  0  0  0  0  0  0  0  0  0
   -3.0228   -1.2058    0.0000 N   0  0  0  0  0  0  0  0  0  0  0  0
   -3.0228   -0.3808    0.0000 C   0  0  0  0  0  0  0  0  0  0  0  0
   -2.3083    0.0317    0.0000 C   0  0  0  0  0  0  0  0  0  0  0  0
   -3.7372   -1.6183    0.0000 C   0  0  0  0  0  0  0  0  0  0  0  0
    1.9785   -1.6183    0.0000 C   0  0  0  0  0  0  0  0  0  0  0  0
   -1.5938    1.2692    0.0000 F   0  0  0  0  0  0  0  0  0  0  0  0
    1.2641    2.0942    0.0000 O   0  0  0  0  0  0  0  0  0  0  0  0
    2.6930    1.2692    0.0000 C   0  0  0  0  0  0  0  0  0  0  0  0
    2.6930    2.0942    0.0000 O   0  0  0  0  0  0  0  0  0  0  0  0
    3.4075    0.8567    0.0000 O   0  0  0  0  0  0  0  0  0  0  0  0
  1  2  1  0
  2  3  2  0
  3  4  1  0
  4  5  1  0
  5  6  1  0
  6  7  2  0
  1  8  2  0
  4  9  2  0
  8  9  1  0
  7 10  1  0
  9 10  1  0
 10 11  1  0
 11 12  1  0
  8 13  1  0
 12 13  1  0
  1 14  1  0
 14 15  1  0
 15 16  1  0
 16 17  1  0
 17 18  1  0
 14 19  1  0
 18 19  1  0
 17 20  1  0
 11 21  1  0
  2 22  1  0
  5 23  2  0
  6 24  1  0
 24 25  1  0
 24 26  2  0
M  END

> <chembl_id>
CHEMBL4

> <chembl_pref_name>
OFLOXACIN

$$$$

     RDKit          2D

 17 18  0  0  0  0  0  0  0  0999 V2000
    3.6387   -0.8963    0.0000 C   0  0  0  0  0  0  0  0  0  0  0  0
    2.6003   -1.4977    0.0000 C   0  0  0  0  0  0  0  0  0  0  0  0
    1.2990   -0.7500    0.0000 N   0  0  0  0  0  0  0  0  0  0  0  0
    1.2990    0.7500    0.0000 C   0  0  0  0  0  0  0  0  0  0  0  0
    0.0000    1.5000    0.0000 C   0  0  0  0  0  0  0  0  0  0  0  0
    0.0031    3.0008    0.0000 C   0  0  0  0  0  0  0  0  0  0  0  0
    1.0432    3.5994    0.0000 O   0  0  0  0  0  0  0  0  0  0  0  0
   -1.0351    3.6026    0.0000 O   0  0  0  0  0  0  0  0  0  0  0  0
   -1.2990    0.7500    0.0000 C   0  0  0  0  0  0  0  0  0  0  0  0
   -2.3383    1.3500    0.0000 O   0  0  0  0  0  0  0  0  0  0  0  0
   -1.2990   -0.7500    0.0000 C   0  0  0  0  0  0  0  0  0  0  0  0
   -2.5981   -1.5000    0.0000 C   0  0  0  0  0  0  0  0  0  0  0  0
   -2.5981   -3.0000    0.0000 C   0  0  0  0  0  0  0  0  0  0  0  0
   -1.2990   -3.7500    0.0000 C   0  0  0  0  0  0  0  0  0  0  0  0
   -1.2990   -4.9500    0.0000 C   0  0  0  0  0  0  0  0  0  0  0  0
    0.0000   -3.0000    0.0000 N   0  0  0  0  0  0  0  0  0  0  0  0
    0.0000   -1.5000    0.0000 C   0  0  0  0  0  0  0  0  0  0  0  0
  1  2  1  0
  2  3  1  0
  3  4  1  0
  4  5  2  0
  5  6  1  0
  6  7  2  0
  6  8  1  0
  5  9  1  0
  9 10  2  0
  9 11  1  0
 11 12  2  0
 12 13  1  0
 13 14  2  0
 14 15  1  0
 14 16  1  0
 16 17  2  0
 17  3  1  0
 17 11  1  0
M  END

> <chembl_id>
CHEMBL5

> <chembl_pref_name>
NALIDIXIC ACID

$$$$

     RDKit          2D

 22 25  0  0  0  0  0  0  0  0999 V2000
    0.8250   -0.7145    0.0000 C   0  0  0  0  0  0  0  0  0  0  0  0
    0.4125   -0.0000    0.0000 C   0  0  0  0  0  0  0  0  0  0  0  0
   -0.4125   -0.0000    0.0000 C   0  0  0  0  0  0  0  0  0  0  0  0
   -0.8250   -0.7145    0.0000 C   0  0  0  0  0  0  0  0  0  0  0  0
   -0.4125   -1.4290    0.0000 O   0  0  0  0  0  0  0  0  0  0  0  0
    0.4125   -1.4290    0.0000 C   0  0  0  0  0  0  0  0  0  0  0  0
   -0.8250    0.7144    0.0000 C   0  0  0  0  0  0  0  0  0  0  0  0
   -1.6500    0.7144    0.0000 C   0  0  0  0  0  0  0  0  0  0  0  0
   -2.0625   -0.0000    0.0000 C   0  0  0  0  0  0  0  0  0  0  0  0
   -1.6500   -0.7145    0.0000 C   0  0  0  0  0  0  0  0  0  0  0  0
    0.8250    0.7144    0.0000 C   0  0  0  0  0  0  0  0  0  0  0  0
    0.4125    1.4289    0.0000 O   0  0  0  0  0  0  0  0  0  0  0  0
   -0.4125    1.4289    0.0000 C   0  0  0  0  0  0  0  0  0  0  0  0
    1.6500   -0.7145    0.0000 C   0  0  0  0  0  0  0  0  0  0  0  0
    2.0625   -0.0000    0.0000 C   0  0  0  0  0  0  0  0  0  0  0  0
    1.6500    0.7144    0.0000 C   0  0  0  0  0  0  0  0  0  0  0  0
   -2.0625   -1.4290    0.0000 O   0  0  0  0  0  0  0  0  0  0  0  0
   -2.8875   -0.0000    0.0000 O   0  0  0  0  0  0  0  0  0  0  0  0
   -0.8250    2.1434    0.0000 O   0  0  0  0  0  0  0  0  0  0  0  0
    2.0625    1.4289    0.0000 O   0  0  0  0  0  0  0  0  0  0  0  0
    2.8875   -0.0000    0.0000 O   0  0  0  0  0  0  0  0  0  0  0  0
    0.8250   -2.1434    0.0000 O   0  0  0  0  0  0  0  0  0  0  0  0
  1  2  2  0
  1  6  1  0
  1 14  1  0
  2  3  1  0
 11  2  1  0
  3  4  2  0
  3  7  1  0
  4  5  1  0
 10  4  1  0
  6  5  1  0
  6 22  2  0
  7  8  2  0
 13  7  1  0
  8  9  1  0
 10  9  2  0
  9 18  1  0
 10 17  1  0
 11 12  1  0
 11 16  2  0
 13 12  1  0
 13 19  2  0
 14 15  2  0
 15 16  1  0
 15 21  1  0
 16 20  1  0
M  END

> <chembl_id>
CHEMBL6246

> <chembl_pref_name>
ELLAGIC ACID

$$$$

     RDKit          2D

 20 22  0  0  0  0  0  0  0  0999 V2000
    6.5292   -2.4417    0.0000 C   0  0  0  0  0  0  0  0  0  0  0  0
    5.1042   -2.4417    0.0000 C   0  0  0  0  0  0  0  0  0  0  0  0
    6.5292   -1.6167    0.0000 O   0  0  0  0  0  0  0  0  0  0  0  0
    5.8167   -2.8542    0.0000 C   0  0  0  0  0  0  0  0  0  0  0  0
    5.8167   -1.2042    0.0000 C   0  0  0  0  0  0  0  0  0  0  0  0
    5.1042   -1.6167    0.0000 C   0  0  0  0  0  0  0  0  0  0  0  0
    7.2500   -2.8542    0.0000 C   0  0  0  0  0  0  0  0  0  0  0  0
    5.8167   -3.6875    0.0000 C   0  0  0  0  0  0  0  0  0  0  0  0
    4.3917   -2.8542    0.0000 C   0  0  0  0  0  0  0  0  0  0  0  0
    4.3917   -1.2042    0.0000 C   0  0  0  0  0  0  0  0  0  0  0  0
    7.2500   -3.6875    0.0000 C   0  0  0  0  0  0  0  0  0  0  0  0
    6.5292   -4.1000    0.0000 C   0  0  0  0  0  0  0  0  0  0  0  0
    3.6750   -2.4417    0.0000 C   0  0  0  0  0  0  0  0  0  0  0  0
    3.6750   -1.6250    0.0000 C   0  0  0  0  0  0  0  0  0  0  0  0
    5.8167   -0.3792    0.0000 O   0  0  0  0  0  0  0  0  0  0  0  0
    7.9542   -2.4375    0.0000 O   0  0  0  0  0  0  0  0  0  0  0  0
    7.9750   -4.1042    0.0000 O   0  0  0  0  0  0  0  0  0  0  0  0
    2.9542   -2.8667    0.0000 O   0  0  0  0  0  0  0  0  0  0  0  0
    2.9542   -1.2042    0.0000 O   0  0  0  0  0  0  0  0  0  0  0  0
    5.1000   -4.0917    0.0000 C   0  0  0  0  0  0  0  0  0  0  0  0
  2  4  1  0
  3  1  1  0
  4  1  2  0
  5  3  1  0
  6  2  1  0
  7  1  1  0
  8  4  1  0
  9  2  2  0
 10  6  2  0
 11  7  2  0
 12 11  1  0
 13  9  1  0
 14 13  2  0
 15  5  2  0
 16  7  1  0
 17 11  1  0
 18 13  1  0
 19 14  1  0
 20  8  1  0
  8 12  2  0
  5  6  1  0
 14 10  1  0
M  END

> <chembl_id>
CHEMBL6247

> <chembl_pref_name>
None

$$$$

     RDKit          2D

 44 47  0  0  0  0  0  0  0  0999 V2000
    3.9375   -4.6625    0.0000 N   0  0  0  0  0  0  0  0  0  0  0  0
    4.6542   -5.0792    0.0000 C   0  0  0  0  0  0  0  0  0  0  0  0
    1.9792   -5.2667    0.0000 N   0  0  0  0  0  0  0  0  0  0  0  0
    1.2542   -4.8625    0.0000 C   0  0  0  0  0  0  0  0  0  0  0  0
    5.3667   -4.6542    0.0000 C   0  0  0  0  0  0  0  0  0  0  0  0
    0.5417   -5.2792    0.0000 C   0  0  0  0  0  0  0  0  0  0  0  0
    3.5292   -5.3792    0.0000 C   0  0  0  0  0  0  0  0  0  0  0  0
   -0.8958   -6.1125    0.0000 C   0  0  0  0  0  0  0  0  0  0  0  0
    6.8000   -3.8167    0.0000 C   0  0  0  0  0  0  0  0  0  0  0  0
    2.6125   -5.0500    0.0000 C   0  0  0  0  0  0  0  0  0  0  0  0
   -0.1833   -6.5292    0.0000 C   0  0  0  0  0  0  0  0  0  0  0  0
    6.8042   -4.6500    0.0000 C   0  0  0  0  0  0  0  0  0  0  0  0
   -0.8958   -5.2792    0.0000 C   0  0  0  0  0  0  0  0  0  0  0  0
    6.0750   -3.4125    0.0000 C   0  0  0  0  0  0  0  0  0  0  0  0
    3.2542   -4.8875    0.0000 C   0  0  0  0  0  0  0  0  0  0  0  0
    3.5167   -7.6417    0.0000 C   0  0  0  0  0  0  0  0  0  0  0  0
    5.3625   -3.8292    0.0000 C   0  0  0  0  0  0  0  0  0  0  0  0
    6.0917   -5.0667    0.0000 C   0  0  0  0  0  0  0  0  0  0  0  0
   -0.1833   -4.8667    0.0000 C   0  0  0  0  0  0  0  0  0  0  0  0
    0.5417   -6.1125    0.0000 C   0  0  0  0  0  0  0  0  0  0  0  0
    2.3792   -4.5500    0.0000 C   0  0  0  0  0  0  0  0  0  0  0  0
    3.1042   -6.9250    0.0000 O   0  0  0  0  0  0  0  0  0  0  0  0
    4.6542   -5.9042    0.0000 O   0  0  0  0  0  0  0  0  0  0  0  0
    3.5250   -6.2042    0.0000 C   0  0  0  0  0  0  0  0  0  0  0  0
    1.2542   -4.0292    0.0000 O   0  0  0  0  0  0  0  0  0  0  0  0
    4.3417   -7.6500    0.0000 O   0  0  0  0  0  0  0  0  0  0  0  0
    3.0917   -8.3542    0.0000 C   0  0  0  0  0  0  0  0  0  0  0  0
    7.5167   -3.4042    0.0000 O   0  0  0  0  0  0  0  0  0  0  0  0
   -1.6208   -6.5292    0.0000 O   0  0  0  0  0  0  0  0  0  0  0  0
    6.0667   -2.5792    0.0000 O   0  0  0  0  0  0  0  0  0  0  0  0
   -1.6125   -4.8667    0.0000 O   0  0  0  0  0  0  0  0  0  0  0  0
    7.5250   -5.0667    0.0000 O   0  0  0  0  0  0  0  0  0  0  0  0
   -0.1833   -7.3542    0.0000 O   0  0  0  0  0  0  0  0  0  0  0  0
    2.2667   -8.3500    0.0000 C   0  0  0  0  0  0  0  0  0  0  0  0
    3.5042   -9.0792    0.0000 C   0  0  0  0  0  0  0  0  0  0  0  0
   -2.3333   -6.1125    0.0000 C   0  0  0  0  0  0  0  0  0  0  0  0
    8.2292   -3.8125    0.0000 C   0  0  0  0  0  0  0  0  0  0  0  0
    7.5292   -5.8917    0.0000 C   0  0  0  0  0  0  0  0  0  0  0  0
   -0.8958   -7.7667    0.0000 C   0  0  0  0  0  0  0  0  0  0  0  0
   -1.6125   -4.0417    0.0000 C   0  0  0  0  0  0  0  0  0  0  0  0
    6.7792   -2.1625    0.0000 C   0  0  0  0  0  0  0  0  0  0  0  0
    3.0792   -9.7917    0.0000 C   0  0  0  0  0  0  0  0  0  0  0  0
    1.8417   -9.0625    0.0000 C   0  0  0  0  0  0  0  0  0  0  0  0
    2.2542   -9.7875    0.0000 C   0  0  0  0  0  0  0  0  0  0  0  0
  2  1  1  0
  3 21  1  0
  4  3  1  0
  5  2  1  0
  6  4  1  0
  7  1  1  0
  8 11  1  0
  9 12  2  0
 10  7  1  0
 11 20  2  0
 12 18  1  0
 13 19  1  0
 14 17  2  0
 15  1  1  0
 16 22  1  0
 17  5  1  0
 18  5  2  0
 19  6  2  0
 20  6  1  0
 21 15  1  0
 22 24  1  0
 23  2  2  0
 24  7  1  0
 25  4  2  0
 26 16  2  0
 27 16  1  0
 28  9  1  0
 29  8  1  0
 30 14  1  0
 31 13  1  0
 32 12  1  0
 33 11  1  0
 34 27  1  0
 35 27  1  0
 36 29  1  0
 37 28  1  0
 38 32  1  0
 39 33  1  0
 40 31  1  0
 41 30  1  0
 42 35  1  0
 43 34  1  0
 44 42  1  0
  3 10  1  0
 14  9  1  0
 13  8  2  0
 43 44  1  0
M  END

> <chembl_id>
CHEMBL268597

> <chembl_pref_name>
None

$$$$

     RDKit          2D

 43 45  0  0  0  0  0  0  0  0999 V2000
    3.9375   -4.6625    0.0000 N   0  0  0  0  0  0  0  0  0  0  0  0
    4.6542   -5.0792    0.0000 C   0  0  0  0  0  0  0  0  0  0  0  0
    1.9792   -5.2667    0.0000 N   0  0  0  0  0  0  0  0  0  0  0  0
    1.2542   -4.8625    0.0000 C   0  0  0  0  0  0  0  0  0  0  0  0
    5.3667   -4.6542    0.0000 C   0  0  0  0  0  0  0  0  0  0  0  0
    0.5417   -5.2792    0.0000 C   0  0  0  0  0  0  0  0  0  0  0  0
    3.5292   -5.3792    0.0000 C   0  0  0  0  0  0  0  0  0  0  0  0
   -0.8958   -6.1125    0.0000 C   0  0  0  0  0  0  0  0  0  0  0  0
    6.8000   -3.8167    0.0000 C   0  0  0  0  0  0  0  0  0  0  0  0
    2.6125   -5.0500    0.0000 C   0  0  0  0  0  0  0  0  0  0  0  0
   -0.1833   -6.5292    0.0000 C   0  0  0  0  0  0  0  0  0  0  0  0
    6.8042   -4.6500    0.0000 C   0  0  0  0  0  0  0  0  0  0  0  0
   -0.8958   -5.2792    0.0000 C   0  0  0  0  0  0  0  0  0  0  0  0
    6.0750   -3.4125    0.0000 C   0  0  0  0  0  0  0  0  0  0  0  0
    3.2542   -4.8875    0.0000 C   0  0  0  0  0  0  0  0  0  0  0  0
    6.0917   -5.0667    0.0000 C   0  0  0  0  0  0  0  0  0  0  0  0
    5.3625   -3.8292    0.0000 C   0  0  0  0  0  0  0  0  0  0  0  0
    0.5417   -6.1125    0.0000 C   0  0  0  0  0  0  0  0  0  0  0  0
   -0.1833   -4.8667    0.0000 C   0  0  0  0  0  0  0  0  0  0  0  0
    3.5167   -7.6417    0.0000 C   0  0  0  0  0  0  0  0  0  0  0  0
    2.3792   -4.5500    0.0000 C   0  0  0  0  0  0  0  0  0  0  0  0
    3.1042   -6.9250    0.0000 O   0  0  0  0  0  0  0  0  0  0  0  0
    4.6542   -5.9042    0.0000 O   0  0  0  0  0  0  0  0  0  0  0  0
    3.5250   -6.2042    0.0000 C   0  0  0  0  0  0  0  0  0  0  0  0
    1.2542   -4.0292    0.0000 O   0  0  0  0  0  0  0  0  0  0  0  0
    4.3417   -7.6500    0.0000 O   0  0  0  0  0  0  0  0  0  0  0  0
    3.0917   -8.3542    0.0000 C   0  0  0  0  0  0  0  0  0  0  0  0
    7.5167   -3.4042    0.0000 O   0  0  0  0  0  0  0  0  0  0  0  0
   -1.6208   -6.5292    0.0000 O   0  0  0  0  0  0  0  0  0  0  0  0
    6.0667   -2.5792    0.0000 O   0  0  0  0  0  0  0  0  0  0  0  0
   -1.6125   -4.8667    0.0000 O   0  0  0  0  0  0  0  0  0  0  0  0
    7.5250   -5.0667    0.0000 O   0  0  0  0  0  0  0  0  0  0  0  0
   -0.1833   -7.3542    0.0000 O   0  0  0  0  0  0  0  0  0  0  0  0
    3.5000   -9.0792    0.0000 C   0  0  0  0  0  0  0  0  0  0  0  0
    2.2667   -8.3542    0.0000 C   0  0  0  0  0  0  0  0  0  0  0  0
   -2.3333   -6.1125    0.0000 C   0  0  0  0  0  0  0  0  0  0  0  0
    8.2292   -3.8125    0.0000 C   0  0  0  0  0  0  0  0  0  0  0  0
    7.5292   -5.8917    0.0000 C   0  0  0  0  0  0  0  0  0  0  0  0
   -0.8958   -7.7667    0.0000 C   0  0  0  0  0  0  0  0  0  0  0  0
   -1.6125   -4.0417    0.0000 C   0  0  0  0  0  0  0  0  0  0  0  0
    6.7792   -2.1625    0.0000 C   0  0  0  0  0  0  0  0  0  0  0  0
    1.8625   -7.6375    0.0000 C   0  0  0  0  0  0  0  0  0  0  0  0
    4.3250   -9.0792    0.0000 C   0  0  0  0  0  0  0  0  0  0  0  0
  2  1  1  0
  3 21  1  0
  4  3  1  0
  5  2  1  0
  6  4  1  0
  7  1  1  0
  8 13  2  0
  9 14  1  0
 10  7  1  0
 11 18  2  0
 12 16  1  0
 13 19  1  0
 14 17  2  0
 15  1  1  0
 16  5  2  0
 17  5  1  0
 18  6  1  0
 19  6  2  0
 20 22  1  0
 21 15  1  0
 22 24  1  0
 23  2  2  0
 24  7  1  0
 25  4  2  0
 26 20  2  0
 27 20  1  0
 28  9  1  0
 29  8  1  0
 30 14  1  0
 31 13  1  0
 32 12  1  0
 33 11  1  0
 34 27  1  0
 35 27  1  0
 36 29  1  0
 37 28  1  0
 38 32  1  0
 39 33  1  0
 40 31  1  0
 41 30  1  0
 42 35  1  0
 43 34  1  0
  3 10  1  0
 12  9  2  0
  8 11  1  0
M  END

> <chembl_id>
CHEMBL6270

> <chembl_pref_name>
None

$$$$

     RDKit          2D

 22 23  0  0  1  0  0  0  0  0999 V2000
    6.6292    1.0083    0.0000 S   0  0  0  0  0  0  0  0  0  0  0  0
    6.1542   -0.2375    0.0000 N   0  0  0  0  0  0  0  0  0  0  0  0
    7.2667    0.4875    0.0000 C   0  0  0  0  0  0  0  0  0  0  0  0
    5.9417    0.5583    0.0000 C   0  0  0  0  0  0  0  0  0  0  0  0
    6.9667   -0.2750    0.0000 C   0  0  0  0  0  0  0  0  0  0  0  0
    5.3542   -0.4500    0.0000 C   0  0  0  0  0  0  0  0  0  0  0  0
    5.1417    0.3458    0.0000 C   0  0  0  0  0  0  0  0  0  0  0  0
    7.3792   -0.9875    0.0000 C   0  0  0  0  0  0  0  0  0  0  0  0
    6.0417    1.5958    0.0000 O   0  0  0  0  0  0  0  0  0  0  0  0
    7.2042    1.5958    0.0000 O   0  0  0  0  0  0  0  0  0  0  0  0
    4.9417   -1.1625    0.0000 O   0  0  0  0  0  0  0  0  0  0  0  0
    3.7167    0.3458    0.0000 C   0  0  0  0  0  0  0  0  0  0  0  0
    8.2042   -0.9875    0.0000 O   0  0  0  0  0  0  0  0  0  0  0  0
    3.0042    0.7583    0.0000 C   0  0  0  0  0  0  0  0  0  0  0  0
    4.4292    0.7583    0.0000 C   0  0  0  0  0  0  0  0  0  0  0  0
    7.8542   -0.0917    0.0000 C   0  0  0  0  0  0  0  0  0  0  0  0
    7.9792    0.9083    0.0000 C   0  0  0  0  0  0  0  0  0  0  0  0
    2.2917    0.3458    0.0000 C   0  0  0  0  0  0  0  0  0  0  0  0
    1.5667    0.7583    0.0000 O   0  0  0  0  0  0  0  0  0  0  0  0
    6.9667   -1.7000    0.0000 O   0  0  0  0  0  0  0  0  0  0  0  0
    2.2917   -0.4792    0.0000 C   0  0  0  0  0  0  0  0  0  0  0  0
    5.3542    1.1458    0.0000 H   0  0  0  0  0  0  0  0  0  0  0  0
  2  4  1  0
  3  1  1  0
  4  1  1  0
  5  3  1  0
  6  7  1  0
  7  4  1  0
  5  8  1  6
  9  1  2  0
 10  1  2  0
 11  6  2  0
 12 15  1  0
 13  8  2  0
 14 12  2  0
 15  7  1  0
 16  3  1  0
 17  3  1  0
 18 14  1  0
 19 18  2  0
 20  8  1  0
 21 18  1  0
  4 22  1  1
  2  5  1  0
  2  6  1  0
M  END

> <chembl_id>
CHEMBL6311

> <chembl_pref_name>
None

$$$$

     RDKit          2D

 27 29  0  0  0  0  0  0  0  0999 V2000
    5.2875   -2.7042    0.0000 C   0  0  0  0  0  0  0  0  0  0  0  0
    4.5792   -3.9542    0.0000 N   0  0  0  0  0  0  0  0  0  0  0  0
    3.8625   -2.7167    0.0000 C   0  0  0  0  0  0  0  0  0  0  0  0
    3.8625   -3.5417    0.0000 C   0  0  0  0  0  0  0  0  0  0  0  0
    4.5667   -2.3000    0.0000 C   0  0  0  0  0  0  0  0  0  0  0  0
    3.1417   -3.9542    0.0000 C   0  0  0  0  0  0  0  0  0  0  0  0
    5.2917   -3.5375    0.0000 C   0  0  0  0  0  0  0  0  0  0  0  0
    2.4292   -3.5417    0.0000 C   0  0  0  0  0  0  0  0  0  0  0  0
    1.7167   -3.9542    0.0000 N   0  0  0  0  0  0  0  0  0  0  0  0
    2.4292   -2.7167    0.0000 C   0  0  0  0  0  0  0  0  0  0  0  0
    3.1417   -2.3042    0.0000 C   0  0  0  0  0  0  0  0  0  0  0  0
    6.0000   -2.2917    0.0000 C   0  0  0  0  0  0  0  0  0  0  0  0
    0.9667   -3.6250    0.0000 C   0  0  0  0  0  0  0  0  0  0  0  0
    4.5792   -4.7792    0.0000 C   0  0  0  0  0  0  0  0  0  0  0  0
    1.6292   -4.7792    0.0000 C   0  0  0  0  0  0  0  0  0  0  0  0
    4.5667   -1.4750    0.0000 O   0  0  0  0  0  0  0  0  0  0  0  0
    5.9917   -1.4667    0.0000 O   0  0  0  0  0  0  0  0  0  0  0  0
    3.1500   -4.7792    0.0000 F   0  0  0  0  0  0  0  0  0  0  0  0
    0.4167   -4.2375    0.0000 C   0  0  0  0  0  0  0  0  0  0  0  0
    1.7167   -2.3042    0.0000 F   0  0  0  0  0  0  0  0  0  0  0  0
    3.8667   -5.1917    0.0000 C   0  0  0  0  0  0  0  0  0  0  0  0
    6.7167   -2.7000    0.0000 O   0  0  0  0  0  0  0  0  0  0  0  0
    0.8250   -4.9542    0.0000 C   0  0  0  0  0  0  0  0  0  0  0  0
   -0.8958   -4.8167    0.0000 N   0  0  0  0  0  0  0  0  0  0  0  0
   -0.4083   -4.1500    0.0000 C   0  0  0  0  0  0  0  0  0  0  0  0
   -1.7125   -4.7292    0.0000 C   0  0  0  0  0  0  0  0  0  0  0  0
   -2.1958   -5.4000    0.0000 C   0  0  0  0  0  0  0  0  0  0  0  0
  2  7  1  0
  3  5  1  0
  4  2  1  0
  5  1  1  0
  6  4  2  0
  7  1  2  0
  8  6  1  0
  9  8  1  0
 10 11  1  0
 11  3  2  0
 12  1  1  0
 13  9  1  0
 14  2  1  0
 15  9  1  0
 16  5  2  0
 17 12  2  0
 18  6  1  0
 19 13  1  0
 20 10  1  0
 21 14  2  0
 22 12  1  0
 23 15  1  0
 24 25  1  0
 25 19  1  0
 26 24  1  0
 27 26  1  0
  3  4  1  0
 10  8  2  0
 19 23  1  0
M  END

> <chembl_id>
CHEMBL6312

> <chembl_pref_name>
None

$$$$

     RDKit          2D

 47 51  0  0  0  0  0  0  0  0999 V2000
    2.3167    2.6000    0.0000 N   0  0  0  0  0  0  0  0  0  0  0  0
    3.0417    1.3708    0.0000 N   0  0  0  0  0  0  0  0  0  0  0  0
    2.3167    1.7833    0.0000 C   0  0  0  0  0  0  0  0  0  0  0  0
    3.7542    2.6083    0.0000 C   0  0  0  0  0  0  0  0  0  0  0  0
    3.0375    3.0208    0.0000 C   0  0  0  0  0  0  0  0  0  0  0  0
    3.7542    1.7833    0.0000 C   0  0  0  0  0  0  0  0  0  0  0  0
    3.0417    0.5458    0.0000 C   0  0  0  0  0  0  0  0  0  0  0  0
    3.7542    0.1333    0.0000 C   0  0  0  0  0  0  0  0  0  0  0  0
    9.4625    1.7875    0.0000 C   0  0  0  0  0  0  0  0  0  0  0  0
    3.7542   -0.6917    0.0000 N   0  0  0  0  0  0  0  0  0  0  0  0
    1.6125    1.3708    0.0000 S   0  0  0  0  0  0  0  0  0  0  0  0
    8.7500    1.3708    0.0000 C   0  0  0  0  0  0  0  0  0  0  0  0
    3.0375    3.8458    0.0000 O   0  0  0  0  0  0  0  0  0  0  0  0
    4.4750   -1.1042    0.0000 C   0  0  0  0  0  0  0  0  0  0  0  0
    7.3250    0.5458    0.0000 C   0  0  0  0  0  0  0  0  0  0  0  0
    6.6125    0.1250    0.0000 C   0  0  0  0  0  0  0  0  0  0  0  0
    4.4667    0.5458    0.0000 O   0  0  0  0  0  0  0  0  0  0  0  0
    3.0417   -1.1042    0.0000 C   0  0  0  0  0  0  0  0  0  0  0  0
    8.0292    1.7833    0.0000 C   0  0  0  0  0  0  0  0  0  0  0  0
    8.7542    0.5458    0.0000 C   0  0  0  0  0  0  0  0  0  0  0  0
   10.1042    2.1625    0.0000 F   0  0  0  0  0  0  0  0  0  0  0  0
   10.2667    1.4833    0.0000 F   0  0  0  0  0  0  0  0  0  0  0  0
    9.5917    2.6458    0.0000 F   0  0  0  0  0  0  0  0  0  0  0  0
    8.0375    0.1333    0.0000 C   0  0  0  0  0  0  0  0  0  0  0  0
    7.3167    1.3625    0.0000 C   0  0  0  0  0  0  0  0  0  0  0  0
    6.6125   -0.7000    0.0000 C   0  0  0  0  0  0  0  0  0  0  0  0
    5.8917    0.5375    0.0000 C   0  0  0  0  0  0  0  0  0  0  0  0
    4.5375    2.8583    0.0000 C   0  0  0  0  0  0  0  0  0  0  0  0
    5.1875   -0.6917    0.0000 C   0  0  0  0  0  0  0  0  0  0  0  0
    0.8917    1.7750    0.0000 C   0  0  0  0  0  0  0  0  0  0  0  0
    4.5375    1.5208    0.0000 C   0  0  0  0  0  0  0  0  0  0  0  0
    1.6167   -1.1042    0.0000 N   0  0  0  0  0  0  0  0  0  0  0  0
    2.3292   -0.6917    0.0000 C   0  0  0  0  0  0  0  0  0  0  0  0
   -1.2458    0.5333    0.0000 C   0  0  0  0  0  0  0  0  0  0  0  0
    0.1792    1.3583    0.0000 C   0  0  0  0  0  0  0  0  0  0  0  0
    5.9000   -1.1125    0.0000 C   0  0  0  0  0  0  0  0  0  0  0  0
    5.1792    0.1250    0.0000 C   0  0  0  0  0  0  0  0  0  0  0  0
   -1.9708    0.1208    0.0000 F   0  0  0  0  0  0  0  0  0  0  0  0
   -0.5333    0.1208    0.0000 C   0  0  0  0  0  0  0  0  0  0  0  0
   -1.2458    1.3583    0.0000 C   0  0  0  0  0  0  0  0  0  0  0  0
    0.1792    0.5333    0.0000 C   0  0  0  0  0  0  0  0  0  0  0  0
   -0.5333    1.7708    0.0000 C   0  0  0  0  0  0  0  0  0  0  0  0
    5.0167    2.1875    0.0000 C   0  0  0  0  0  0  0  0  0  0  0  0
    0.9000   -0.7000    0.0000 C   0  0  0  0  0  0  0  0  0  0  0  0
    1.6167   -1.9292    0.0000 C   0  0  0  0  0  0  0  0  0  0  0  0
    0.9000   -2.3500    0.0000 C   0  0  0  0  0  0  0  0  0  0  0  0
    0.1875   -1.1125    0.0000 C   0  0  0  0  0  0  0  0  0  0  0  0
  2  3  1  0
  3  1  2  0
  4  5  1  0
  5  1  1  0
  6  4  2  0
  7  2  1  0
  8  7  1  0
  9 12  1  0
 10  8  1  0
 11  3  1  0
 12 19  1  0
 13  5  2  0
 14 10  1  0
 15 16  1  0
 16 27  1  0
 17  8  2  0
 18 10  1  0
 19 25  2  0
 20 24  1  0
 21  9  1  0
 22  9  1  0
 23  9  1  0
 24 15  2  0
 25 15  1  0
 26 36  1  0
 27 37  2  0
 28  4  1  0
 29 14  1  0
 30 11  1  0
 31  6  1  0
 32 33  1  0
 33 18  1  0
 34 40  2  0
 35 30  1  0
 36 29  2  0
 37 29  1  0
 38 34  1  0
 39 41  2  0
 40 42  1  0
 41 35  1  0
 42 35  2  0
 43 28  1  0
 44 32  1  0
 45 32  1  0
 46 45  1  0
 47 44  1  0
  6  2  1  0
 43 31  1  0
 34 39  1  0
 16 26  2  0
 12 20  2  0
M  END

> <chembl_id>
CHEMBL204021

> <chembl_pref_name>
DARAPLADIB

$$$$

     RDKit          2D

 77 80  0  0  0  0  0  0  0  0999 V2000
    7.3875   -8.9250    0.0000 N   0  0  0  0  0  0  0  0  0  0  0  0
    1.1542   -8.9250    0.0000 N   0  0  0  0  0  0  0  0  0  0  0  0
    0.6292   -8.6292    0.0000 C   0  0  0  0  0  0  0  0  0  0  0  0
    1.1542   -9.5250    0.0000 C   0  0  0  0  0  0  0  0  0  0  0  0
    7.3875   -9.5250    0.0000 C   0  0  0  0  0  0  0  0  0  0  0  0
    7.9042   -8.6250    0.0000 C   0  0  0  0  0  0  0  0  0  0  0  0
    6.8667   -8.6250    0.0000 C   0  0  0  0  0  0  0  0  0  0  0  0
    6.3500   -8.9250    0.0000 C   0  0  0  0  0  0  0  0  0  0  0  0
    0.1167   -8.9292    0.0000 C   0  0  0  0  0  0  0  0  0  0  0  0
    6.8667   -9.8167    0.0000 C   0  0  0  0  0  0  0  0  0  0  0  0
    1.6750   -9.8167    0.0000 C   0  0  0  0  0  0  0  0  0  0  0  0
    8.4250   -8.9250    0.0000 C   0  0  0  0  0  0  0  0  0  0  0  0
    1.6667   -8.6250    0.0000 C   0  0  0  0  0  0  0  0  0  0  0  0
    6.3417  -10.7167    0.0000 O   0  0  0  0  0  0  0  0  0  0  0  0
   -0.9250   -8.9292    0.0000 O   0  0  0  0  0  0  0  0  0  0  0  0
    2.2042  -10.7042    0.0000 O   0  0  0  0  0  0  0  0  0  0  0  0
    9.4667   -8.9250    0.0000 O   0  0  0  0  0  0  0  0  0  0  0  0
    5.8292   -8.6250    0.0000 O   0  0  0  0  0  0  0  0  0  0  0  0
    4.2667   -8.9250    0.0000 O   0  0  0  0  0  0  0  0  0  0  0  0
    2.2125  -11.3042    0.0000 C   0  0  0  0  0  0  0  0  0  0  0  0
   -1.4458   -8.6292    0.0000 C   0  0  0  0  0  0  0  0  0  0  0  0
    6.3417  -11.3167    0.0000 C   0  0  0  0  0  0  0  0  0  0  0  0
    9.9875   -8.6250    0.0000 C   0  0  0  0  0  0  0  0  0  0  0  0
    6.8667  -10.4167    0.0000 C   0  0  0  0  0  0  0  0  0  0  0  0
    8.9417   -8.6250    0.0000 C   0  0  0  0  0  0  0  0  0  0  0  0
   -0.4083   -8.6292    0.0000 C   0  0  0  0  0  0  0  0  0  0  0  0
    1.6792  -10.4167    0.0000 C   0  0  0  0  0  0  0  0  0  0  0  0
    2.7125   -8.6250    0.0000 O   0  0  0  0  0  0  0  0  0  0  0  0
    2.2292  -12.5042    0.0000 C   0  0  0  0  0  0  0  0  0  0  0  0
   -2.4833   -8.0292    0.0000 C   0  0  0  0  0  0  0  0  0  0  0  0
    6.3417  -12.5167    0.0000 C   0  0  0  0  0  0  0  0  0  0  0  0
   11.0167   -8.0250    0.0000 C   0  0  0  0  0  0  0  0  0  0  0  0
    4.7875   -8.6250    0.0000 C   0  0  0  0  0  0  0  0  0  0  0  0
   -1.9708   -8.9292    0.0000 C   0  0  0  0  0  0  0  0  0  0  0  0
    5.8250  -11.6167    0.0000 C   0  0  0  0  0  0  0  0  0  0  0  0
   -1.4458   -8.0292    0.0000 C   0  0  0  0  0  0  0  0  0  0  0  0
    1.7000  -11.6125    0.0000 C   0  0  0  0  0  0  0  0  0  0  0  0
    6.8625  -11.6167    0.0000 C   0  0  0  0  0  0  0  0  0  0  0  0
   10.5042   -8.9250    0.0000 C   0  0  0  0  0  0  0  0  0  0  0  0
    2.7375  -11.6042    0.0000 C   0  0  0  0  0  0  0  0  0  0  0  0
    9.9792   -8.0250    0.0000 C   0  0  0  0  0  0  0  0  0  0  0  0
    2.7417  -12.2000    0.0000 C   0  0  0  0  0  0  0  0  0  0  0  0
    5.8250  -12.2167    0.0000 C   0  0  0  0  0  0  0  0  0  0  0  0
    1.7042  -12.2042    0.0000 C   0  0  0  0  0  0  0  0  0  0  0  0
   -2.4833   -8.6292    0.0000 C   0  0  0  0  0  0  0  0  0  0  0  0
   11.0167   -8.6250    0.0000 C   0  0  0  0  0  0  0  0  0  0  0  0
    6.8667  -12.2167    0.0000 C   0  0  0  0  0  0  0  0  0  0  0  0
   10.5000   -7.7250    0.0000 C   0  0  0  0  0  0  0  0  0  0  0  0
   -1.9583   -7.7292    0.0000 C   0  0  0  0  0  0  0  0  0  0  0  0
    8.4250   -9.5250    0.0000 O   0  0  0  0  0  0  0  0  0  0  0  0
    6.3500   -9.5167    0.0000 O   0  0  0  0  0  0  0  0  0  0  0  0
    0.1167   -9.5292    0.0000 O   0  0  0  0  0  0  0  0  0  0  0  0
    2.1917   -9.5042    0.0000 O   0  0  0  0  0  0  0  0  0  0  0  0
    5.3042   -8.9250    0.0000 C   0  0  0  0  0  0  0  0  0  0  0  0
   -4.0458   -7.7292    0.0000 O   0  0  0  0  0  0  0  0  0  0  0  0
    2.7667  -14.0000    0.0000 O   0  0  0  0  0  0  0  0  0  0  0  0
    6.8667  -14.0167    0.0000 O   0  0  0  0  0  0  0  0  0  0  0  0
   12.0625   -6.8250    0.0000 O   0  0  0  0  0  0  0  0  0  0  0  0
    2.1917   -8.9250    0.0000 C   0  0  0  0  0  0  0  0  0  0  0  0
    3.7500   -8.6250    0.0000 C   0  0  0  0  0  0  0  0  0  0  0  0
    3.2292   -8.9250    0.0000 C   0  0  0  0  0  0  0  0  0  0  0  0
    6.8667   -8.0250    0.0000 C   0  0  0  0  0  0  0  0  0  0  0  0
    1.6667   -8.0250    0.0000 C   0  0  0  0  0  0  0  0  0  0  0  0
   11.5417   -7.7292    0.0000 C   0  0  0  0  0  0  0  0  0  0  0  0
    6.3417  -13.1167    0.0000 C   0  0  0  0  0  0  0  0  0  0  0  0
    2.2375  -13.1042    0.0000 C   0  0  0  0  0  0  0  0  0  0  0  0
   -3.0083   -7.7292    0.0000 C   0  0  0  0  0  0  0  0  0  0  0  0
   11.5417   -7.1292    0.0000 C   0  0  0  0  0  0  0  0  0  0  0  0
    2.7542  -13.4000    0.0000 C   0  0  0  0  0  0  0  0  0  0  0  0
    6.8667  -13.4167    0.0000 C   0  0  0  0  0  0  0  0  0  0  0  0
   -3.5250   -8.0292    0.0000 C   0  0  0  0  0  0  0  0  0  0  0  0
   -4.5625   -8.0292    0.0000 C   0  0  0  0  0  0  0  0  0  0  0  0
    7.3792  -14.3167    0.0000 C   0  0  0  0  0  0  0  0  0  0  0  0
    3.2875  -14.2917    0.0000 C   0  0  0  0  0  0  0  0  0  0  0  0
   12.0542   -6.2250    0.0000 C   0  0  0  0  0  0  0  0  0  0  0  0
    5.3042   -9.5250    0.0000 C   0  0  0  0  0  0  0  0  0  0  0  0
    3.7500   -8.0250    0.0000 C   0  0  0  0  0  0  0  0  0  0  0  0
  2 13  1  0
  3  2  1  0
  4  2  1  0
  5  1  1  0
  6  1  1  0
  7  1  1  0
  8  7  1  0
  9  3  1  0
 10  5  1  0
 11  4  1  0
 12  6  1  0
 13 59  1  0
 14 24  1  0
 15 26  1  0
 16 27  1  0
 17 25  1  0
 18  8  1  0
 19 33  1  0
 20 16  1  0
 21 15  1  0
 22 14  1  0
 23 17  1  0
 24 10  1  0
 25 12  1  0
 26  9  1  0
 27 11  1  0
 28 61  1  0
 29 42  2  0
 30 49  1  0
 31 47  1  0
 32 48  1  0
 33 54  1  0
 34 21  2  0
 35 22  2  0
 36 21  1  0
 37 20  1  0
 38 22  1  0
 39 23  2  0
 40 20  2  0
 41 23  1  0
 42 40  1  0
 43 35  1  0
 44 37  2  0
 45 34  1  0
 46 39  1  0
 47 38  2  0
 48 41  2  0
 49 36  2  0
 50 12  1  0
 51 10  1  0
 52  9  1  0
 53 11  1  0
 54 18  1  0
 55 71  1  0
 56 69  1  0
 57 70  1  0
 58 68  1  0
 59 28  1  0
 60 19  1  0
 61 60  1  0
 62  7  1  0
 63 13  1  0
 64 32  1  0
 65 31  1  0
 66 29  1  0
 67 30  1  0
 68 64  1  0
 69 66  1  0
 70 65  1  0
 71 67  1  0
 72 55  1  0
 73 57  1  0
 74 56  1  0
 75 58  1  0
 76 54  1  0
 77 60  1  0
 32 46  2  0
 31 43  2  0
 44 29  1  0
 30 45  2  0
M  END

> <chembl_id>
CHEMBL383864

> <chembl_pref_name>
None

$$$$

     RDKit          2D

 53 54  0  0  1  0  0  0  0  0999 V2000
    8.3292   -3.5750    0.0000 C   0  0  0  0  0  0  0  0  0  0  0  0
    7.6125   -3.1625    0.0000 C   0  0  0  0  0  0  0  0  0  0  0  0
    3.3250   -3.1625    0.0000 C   0  0  0  0  0  0  0  0  0  0  0  0
    1.8917   -3.1625    0.0000 N   0  0  0  0  0  0  0  0  0  0  0  0
    1.1792   -3.5750    0.0000 C   0  0  0  0  0  0  0  0  0  0  0  0
   -0.9708   -3.1625    0.0000 C   0  0  0  0  0  0  0  0  0  0  0  0
    5.4667   -3.5750    0.0000 C   0  0  0  0  0  0  0  0  0  0  0  0
    4.0417   -3.5750    0.0000 N   0  0  0  0  0  0  0  0  0  0  0  0
   -0.2458   -3.5750    0.0000 N   0  0  0  0  0  0  0  0  0  0  0  0
    9.0417   -3.1625    0.0000 N   0  0  0  0  0  0  0  0  0  0  0  0
    6.1792   -3.1625    0.0000 N   0  0  0  0  0  0  0  0  0  0  0  0
    2.6125   -3.5750    0.0000 C   0  0  0  0  0  0  0  0  0  0  0  0
   -1.6875   -3.5875    0.0000 C   0  0  0  0  0  0  0  0  0  0  0  0
    4.7542   -3.1625    0.0000 C   0  0  0  0  0  0  0  0  0  0  0  0
    0.4667   -3.1625    0.0000 C   0  0  0  0  0  0  0  0  0  0  0  0
    6.9000   -3.5750    0.0000 C   0  0  0  0  0  0  0  0  0  0  0  0
   10.4750   -3.1625    0.0000 C   0  0  0  0  0  0  0  0  0  0  0  0
    9.7542   -3.5750    0.0000 C   0  0  0  0  0  0  0  0  0  0  0  0
   -2.4083   -3.1750    0.0000 N   0  0  0  0  0  0  0  0  0  0  0  0
    7.6125   -2.3375    0.0000 O   0  0  0  0  0  0  0  0  0  0  0  0
    8.3292   -4.4042    0.0000 O   0  0  0  0  0  0  0  0  0  0  0  0
    3.3250   -2.3375    0.0000 O   0  0  0  0  0  0  0  0  0  0  0  0
   -0.9708   -2.3375    0.0000 O   0  0  0  0  0  0  0  0  0  0  0  0
    1.1792   -4.4042    0.0000 O   0  0  0  0  0  0  0  0  0  0  0  0
    5.4667   -4.4042    0.0000 O   0  0  0  0  0  0  0  0  0  0  0  0
    4.7542   -2.3375    0.0000 C   0  0  0  0  0  0  0  0  0  0  0  0
   10.4667   -2.3375    0.0000 O   0  0  0  0  0  0  0  0  0  0  0  0
   -2.4083   -4.8250    0.0000 N   0  0  0  0  0  0  0  0  0  0  0  0
    0.4667   -2.3375    0.0000 C   0  0  0  0  0  0  0  0  0  0  0  0
    2.6125   -4.4042    0.0000 C   0  0  0  0  0  0  0  0  0  0  0  0
   11.1875   -3.5750    0.0000 O   0  0  0  0  0  0  0  0  0  0  0  0
   -1.6875   -4.4125    0.0000 C   0  0  0  0  0  0  0  0  0  0  0  0
   12.6167   -4.3917    0.0000 N   0  0  0  0  0  0  0  0  0  0  0  0
    5.1625   -1.6167    0.0000 C   0  0  0  0  0  0  0  0  0  0  0  0
    6.9000   -4.4042    0.0000 C   0  0  0  0  0  0  0  0  0  0  0  0
   -3.1208   -3.5875    0.0000 C   0  0  0  0  0  0  0  0  0  0  0  0
    0.6792   -1.5375    0.0000 C   0  0  0  0  0  0  0  0  0  0  0  0
   -3.1208   -4.4125    0.0000 C   0  0  0  0  0  0  0  0  0  0  0  0
    9.7625   -4.4000    0.0000 C   0  0  0  0  0  0  0  0  0  0  0  0
   11.9042   -4.8125    0.0000 C   0  0  0  0  0  0  0  0  0  0  0  0
    3.3292   -4.8167    0.0000 C   0  0  0  0  0  0  0  0  0  0  0  0
    1.9000   -4.8167    0.0000 C   0  0  0  0  0  0  0  0  0  0  0  0
    5.9875   -1.6125    0.0000 C   0  0  0  0  0  0  0  0  0  0  0  0
    4.7417   -0.9000    0.0000 C   0  0  0  0  0  0  0  0  0  0  0  0
   10.4750   -4.8125    0.0000 C   0  0  0  0  0  0  0  0  0  0  0  0
   11.1875   -4.4000    0.0000 C   0  0  0  0  0  0  0  0  0  0  0  0
    0.0917   -0.9500    0.0000 C   0  0  0  0  0  0  0  0  0  0  0  0
    1.4750   -1.3125    0.0000 C   0  0  0  0  0  0  0  0  0  0  0  0
    7.6125   -4.8167    0.0000 C   0  0  0  0  0  0  0  0  0  0  0  0
    3.3292   -5.6500    0.0000 C   0  0  0  0  0  0  0  0  0  0  0  0
    5.1542   -0.1875    0.0000 C   0  0  0  0  0  0  0  0  0  0  0  0
    6.3917   -0.9000    0.0000 C   0  0  0  0  0  0  0  0  0  0  0  0
    5.9792   -0.1875    0.0000 C   0  0  0  0  0  0  0  0  0  0  0  0
  2  1  1  0
  3  8  1  0
 12  4  1  6
  5  4  1  0
  6  9  1  0
  7 11  1  0
  8 14  1  0
  9 15  1  0
 10  1  1  0
 11 16  1  0
 12  3  1  0
 13  6  1  0
 14  7  1  0
 15  5  1  0
 16  2  1  0
 17 18  1  0
 18 10  1  0
 19 13  2  0
 20  2  2  0
 21  1  2  0
 22  3  2  0
 23  6  2  0
 24  5  2  0
 25  7  2  0
 14 26  1  1
 27 17  2  0
 28 32  2  0
 15 29  1  1
 30 12  1  0
 31 17  1  0
 32 13  1  0
 33 40  1  0
 34 26  1  0
 16 35  1  6
 36 19  1  0
 37 29  1  0
 38 28  1  0
 18 39  1  6
 40 46  1  0
 41 30  1  0
 30 42  1  6
 43 34  1  0
 44 34  1  0
 45 39  1  0
 46 45  1  0
 47 37  1  0
 48 37  1  0
 49 35  1  0
 50 41  1  0
 51 44  1  0
 52 43  1  0
 53 51  1  0
 53 52  1  0
 38 36  2  0
M  END

> <chembl_id>
CHEMBL266222

> <chembl_pref_name>
None

$$$$

     RDKit          2D

 49 51  0  0  0  0  0  0  0  0999 V2000
    4.7750  -17.4167    0.0000 N   0  0  0  0  0  0  0  0  0  0  0  0
    5.4917  -17.8375    0.0000 C   0  0  0  0  0  0  0  0  0  0  0  0
    2.8167  -18.0292    0.0000 N   0  0  0  0  0  0  0  0  0  0  0  0
    2.0917  -17.6167    0.0000 C   0  0  0  0  0  0  0  0  0  0  0  0
    6.2042  -17.4167    0.0000 C   0  0  0  0  0  0  0  0  0  0  0  0
    1.3792  -18.0375    0.0000 C   0  0  0  0  0  0  0  0  0  0  0  0
    4.3667  -18.1375    0.0000 C   0  0  0  0  0  0  0  0  0  0  0  0
    4.4042  -20.3167    0.0000 C   0  0  0  0  0  0  0  0  0  0  0  0
    7.6375  -16.5792    0.0000 C   0  0  0  0  0  0  0  0  0  0  0  0
   -0.0583  -18.8667    0.0000 C   0  0  0  0  0  0  0  0  0  0  0  0
    3.4500  -17.8042    0.0000 C   0  0  0  0  0  0  0  0  0  0  0  0
    7.6417  -17.4042    0.0000 C   0  0  0  0  0  0  0  0  0  0  0  0
   -0.0583  -18.0417    0.0000 C   0  0  0  0  0  0  0  0  0  0  0  0
    6.9125  -16.1667    0.0000 C   0  0  0  0  0  0  0  0  0  0  0  0
    0.6542  -19.2875    0.0000 C   0  0  0  0  0  0  0  0  0  0  0  0
    4.0917  -17.6417    0.0000 C   0  0  0  0  0  0  0  0  0  0  0  0
    6.2000  -16.5917    0.0000 C   0  0  0  0  0  0  0  0  0  0  0  0
    6.9292  -17.8292    0.0000 C   0  0  0  0  0  0  0  0  0  0  0  0
    0.6542  -17.6250    0.0000 C   0  0  0  0  0  0  0  0  0  0  0  0
    1.3792  -18.8667    0.0000 C   0  0  0  0  0  0  0  0  0  0  0  0
    4.1250  -19.5417    0.0000 O   0  0  0  0  0  0  0  0  0  0  0  0
    3.2250  -17.3042    0.0000 C   0  0  0  0  0  0  0  0  0  0  0  0
    3.8792  -20.9542    0.0000 N   0  0  0  0  0  0  0  0  0  0  0  0
    5.4917  -18.6625    0.0000 O   0  0  0  0  0  0  0  0  0  0  0  0
    4.6500  -18.9125    0.0000 C   0  0  0  0  0  0  0  0  0  0  0  0
    2.0917  -16.7917    0.0000 O   0  0  0  0  0  0  0  0  0  0  0  0
    5.2167  -20.4625    0.0000 O   0  0  0  0  0  0  0  0  0  0  0  0
    8.3542  -16.1625    0.0000 O   0  0  0  0  0  0  0  0  0  0  0  0
   -0.7833  -19.2875    0.0000 O   0  0  0  0  0  0  0  0  0  0  0  0
    8.3625  -17.8250    0.0000 O   0  0  0  0  0  0  0  0  0  0  0  0
    0.6542  -20.1167    0.0000 O   0  0  0  0  0  0  0  0  0  0  0  0
    6.9042  -15.3417    0.0000 O   0  0  0  0  0  0  0  0  0  0  0  0
   -0.7750  -17.6292    0.0000 O   0  0  0  0  0  0  0  0  0  0  0  0
    4.1667  -21.7292    0.0000 C   0  0  0  0  0  0  0  0  0  0  0  0
    3.0667  -20.8167    0.0000 C   0  0  0  0  0  0  0  0  0  0  0  0
   -1.4958  -18.8667    0.0000 C   0  0  0  0  0  0  0  0  0  0  0  0
    9.0667  -16.5667    0.0000 C   0  0  0  0  0  0  0  0  0  0  0  0
   -0.7750  -16.8000    0.0000 C   0  0  0  0  0  0  0  0  0  0  0  0
    7.6167  -14.9167    0.0000 C   0  0  0  0  0  0  0  0  0  0  0  0
    8.3667  -18.6542    0.0000 C   0  0  0  0  0  0  0  0  0  0  0  0
   -0.0583  -20.5292    0.0000 C   0  0  0  0  0  0  0  0  0  0  0  0
    2.7792  -20.0417    0.0000 C   0  0  0  0  0  0  0  0  0  0  0  0
    4.9792  -21.8667    0.0000 C   0  0  0  0  0  0  0  0  0  0  0  0
    1.4417  -20.5375    0.0000 C   0  0  0  0  0  0  0  0  0  0  0  0
    4.7375  -23.2792    0.0000 C   0  0  0  0  0  0  0  0  0  0  0  0
    1.9667  -19.9000    0.0000 C   0  0  0  0  0  0  0  0  0  0  0  0
    5.2667  -22.6417    0.0000 C   0  0  0  0  0  0  0  0  0  0  0  0
    1.7292  -21.3042    0.0000 C   0  0  0  0  0  0  0  0  0  0  0  0
    3.9250  -23.1375    0.0000 C   0  0  0  0  0  0  0  0  0  0  0  0
  2  1  1  0
  3 22  1  0
  4  3  1  0
  5  2  1  0
  6  4  1  0
  7  1  1  0
  8 21  1  0
  9 12  2  0
 10 15  1  0
 11  7  1  0
 12 18  1  0
 13 19  1  0
 14 17  2  0
 15 20  2  0
 16  1  1  0
 17  5  1  0
 18  5  2  0
 19  6  2  0
 20  6  1  0
 21 25  1  0
 22 16  1  0
 23  8  1  0
 24  2  2  0
 25  7  1  0
 26  4  2  0
 27  8  2  0
 28  9  1  0
 29 10  1  0
 30 12  1  0
 31 15  1  0
 32 14  1  0
 33 13  1  0
 34 23  1  0
 35 23  1  0
 36 29  1  0
 37 28  1  0
 38 33  1  0
 39 32  1  0
 40 30  1  0
 41 31  1  0
 42 35  1  0
 43 34  1  0
 44 46  1  0
 45 47  1  0
 46 42  1  0
 47 43  1  0
 48 44  1  0
 49 45  1  0
  3 11  1  0
 14  9  1  0
 13 10  2  0
M  END

> <chembl_id>
CHEMBL6263

> <chembl_pref_name>
None

$$$$

     RDKit          2D

 47 49  0  0  0  0  0  0  0  0999 V2000
    4.7750  -17.4167    0.0000 N   0  0  0  0  0  0  0  0  0  0  0  0
    5.4917  -17.8375    0.0000 C   0  0  0  0  0  0  0  0  0  0  0  0
    2.8167  -18.0292    0.0000 N   0  0  0  0  0  0  0  0  0  0  0  0
    2.0917  -17.6167    0.0000 C   0  0  0  0  0  0  0  0  0  0  0  0
    6.2042  -17.4167    0.0000 C   0  0  0  0  0  0  0  0  0  0  0  0
    1.3792  -18.0375    0.0000 C   0  0  0  0  0  0  0  0  0  0  0  0
    4.3667  -18.1375    0.0000 C   0  0  0  0  0  0  0  0  0  0  0  0
    4.4042  -20.3167    0.0000 C   0  0  0  0  0  0  0  0  0  0  0  0
    7.6375  -16.5792    0.0000 C   0  0  0  0  0  0  0  0  0  0  0  0
   -0.0583  -18.8667    0.0000 C   0  0  0  0  0  0  0  0  0  0  0  0
    3.4500  -17.8042    0.0000 C   0  0  0  0  0  0  0  0  0  0  0  0
    7.6417  -17.4042    0.0000 C   0  0  0  0  0  0  0  0  0  0  0  0
   -0.0583  -18.0417    0.0000 C   0  0  0  0  0  0  0  0  0  0  0  0
    6.9125  -16.1667    0.0000 C   0  0  0  0  0  0  0  0  0  0  0  0
    0.6542  -19.2875    0.0000 C   0  0  0  0  0  0  0  0  0  0  0  0
    4.0917  -17.6417    0.0000 C   0  0  0  0  0  0  0  0  0  0  0  0
    6.2000  -16.5917    0.0000 C   0  0  0  0  0  0  0  0  0  0  0  0
    6.9292  -17.8292    0.0000 C   0  0  0  0  0  0  0  0  0  0  0  0
    0.6542  -17.6250    0.0000 C   0  0  0  0  0  0  0  0  0  0  0  0
    1.3792  -18.8667    0.0000 C   0  0  0  0  0  0  0  0  0  0  0  0
    4.1250  -19.5417    0.0000 O   0  0  0  0  0  0  0  0  0  0  0  0
    3.2250  -17.3042    0.0000 C   0  0  0  0  0  0  0  0  0  0  0  0
    3.8792  -20.9542    0.0000 N   0  0  0  0  0  0  0  0  0  0  0  0
    5.4917  -18.6625    0.0000 O   0  0  0  0  0  0  0  0  0  0  0  0
    4.6500  -18.9125    0.0000 C   0  0  0  0  0  0  0  0  0  0  0  0
    2.0917  -16.7917    0.0000 O   0  0  0  0  0  0  0  0  0  0  0  0
    5.2167  -20.4625    0.0000 O   0  0  0  0  0  0  0  0  0  0  0  0
    8.3542  -16.1625    0.0000 O   0  0  0  0  0  0  0  0  0  0  0  0
   -0.7833  -19.2875    0.0000 O   0  0  0  0  0  0  0  0  0  0  0  0
    8.3625  -17.8250    0.0000 O   0  0  0  0  0  0  0  0  0  0  0  0
    0.6542  -20.1167    0.0000 O   0  0  0  0  0  0  0  0  0  0  0  0
    6.9042  -15.3417    0.0000 O   0  0  0  0  0  0  0  0  0  0  0  0
   -0.7750  -17.6292    0.0000 O   0  0  0  0  0  0  0  0  0  0  0  0
    4.1667  -21.7292    0.0000 C   0  0  0  0  0  0  0  0  0  0  0  0
    3.0667  -20.8167    0.0000 C   0  0  0  0  0  0  0  0  0  0  0  0
   -1.4958  -18.8667    0.0000 C   0  0  0  0  0  0  0  0  0  0  0  0
    9.0667  -16.5667    0.0000 C   0  0  0  0  0  0  0  0  0  0  0  0
   -0.7750  -16.8000    0.0000 C   0  0  0  0  0  0  0  0  0  0  0  0
    7.6167  -14.9167    0.0000 C   0  0  0  0  0  0  0  0  0  0  0  0
    8.3667  -18.6542    0.0000 C   0  0  0  0  0  0  0  0  0  0  0  0
   -0.0583  -20.5292    0.0000 C   0  0  0  0  0  0  0  0  0  0  0  0
    2.7792  -20.0417    0.0000 C   0  0  0  0  0  0  0  0  0  0  0  0
    4.9792  -21.8667    0.0000 C   0  0  0  0  0  0  0  0  0  0  0  0
    1.9667  -19.9000    0.0000 C   0  0  0  0  0  0  0  0  0  0  0  0
    5.2667  -22.6417    0.0000 C   0  0  0  0  0  0  0  0  0  0  0  0
    1.4417  -20.5375    0.0000 C   0  0  0  0  0  0  0  0  0  0  0  0
    4.7375  -23.2792    0.0000 C   0  0  0  0  0  0  0  0  0  0  0  0
  2  1  1  0
  3 22  1  0
  4  3  1  0
  5  2  1  0
  6  4  1  0
  7  1  1  0
  8 21  1  0
  9 12  2  0
 10 15  1  0
 11  7  1  0
 12 18  1  0
 13 19  1  0
 14 17  2  0
 15 20  2  0
 16  1  1  0
 17  5  1  0
 18  5  2  0
 19  6  2  0
 20  6  1  0
 21 25  1  0
 22 16  1  0
 23  8  1  0
 24  2  2  0
 25  7  1  0
 26  4  2  0
 27  8  2  0
 28  9  1  0
 29 10  1  0
 30 12  1  0
 31 15  1  0
 32 14  1  0
 33 13  1  0
 34 23  1  0
 35 23  1  0
 36 29  1  0
 37 28  1  0
 38 33  1  0
 39 32  1  0
 40 30  1  0
 41 31  1  0
 42 35  1  0
 43 34  1  0
 44 42  1  0
 45 43  1  0
 46 44  1  0
 47 45  1  0
  3 11  1  0
 14  9  1  0
 13 10  2  0
M  END

> <chembl_id>
CHEMBL6319

> <chembl_pref_name>
None

$$$$

     RDKit          2D

 41 43  0  0  0  0  0  0  0  0999 V2000
    6.9042   -1.4750    0.0000 N   0  0  0  0  0  0  0  0  0  0  0  0
    7.6167   -1.8917    0.0000 C   0  0  0  0  0  0  0  0  0  0  0  0
    4.9417   -2.0792    0.0000 N   0  0  0  0  0  0  0  0  0  0  0  0
    4.2250   -1.6750    0.0000 C   0  0  0  0  0  0  0  0  0  0  0  0
    8.3375   -1.4667    0.0000 C   0  0  0  0  0  0  0  0  0  0  0  0
    3.5042   -2.0917    0.0000 C   0  0  0  0  0  0  0  0  0  0  0  0
    6.4917   -2.1917    0.0000 C   0  0  0  0  0  0  0  0  0  0  0  0
    2.0667   -2.9250    0.0000 C   0  0  0  0  0  0  0  0  0  0  0  0
    9.7667   -0.6292    0.0000 C   0  0  0  0  0  0  0  0  0  0  0  0
    5.5792   -1.8625    0.0000 C   0  0  0  0  0  0  0  0  0  0  0  0
    2.7875   -3.3417    0.0000 C   0  0  0  0  0  0  0  0  0  0  0  0
    9.7667   -1.4625    0.0000 C   0  0  0  0  0  0  0  0  0  0  0  0
    2.0667   -2.0917    0.0000 C   0  0  0  0  0  0  0  0  0  0  0  0
    9.0417   -0.2167    0.0000 C   0  0  0  0  0  0  0  0  0  0  0  0
    6.2250   -1.7000    0.0000 C   0  0  0  0  0  0  0  0  0  0  0  0
    9.0542   -1.8792    0.0000 C   0  0  0  0  0  0  0  0  0  0  0  0
    8.3292   -0.6417    0.0000 C   0  0  0  0  0  0  0  0  0  0  0  0
    3.5042   -2.9250    0.0000 C   0  0  0  0  0  0  0  0  0  0  0  0
    2.7875   -1.6792    0.0000 C   0  0  0  0  0  0  0  0  0  0  0  0
    5.3542   -1.3625    0.0000 C   0  0  0  0  0  0  0  0  0  0  0  0
    6.4792   -4.4542    0.0000 C   0  0  0  0  0  0  0  0  0  0  0  0
    7.6167   -2.7167    0.0000 O   0  0  0  0  0  0  0  0  0  0  0  0
    4.2167   -0.8417    0.0000 O   0  0  0  0  0  0  0  0  0  0  0  0
    6.4917   -3.0167    0.0000 C   0  0  0  0  0  0  0  0  0  0  0  0
    6.0667   -3.7375    0.0000 O   0  0  0  0  0  0  0  0  0  0  0  0
    7.3125   -4.4625    0.0000 O   0  0  0  0  0  0  0  0  0  0  0  0
    1.3500   -3.3417    0.0000 O   0  0  0  0  0  0  0  0  0  0  0  0
   10.4792   -0.2167    0.0000 O   0  0  0  0  0  0  0  0  0  0  0  0
    2.7875   -4.1667    0.0000 O   0  0  0  0  0  0  0  0  0  0  0  0
    9.0292    0.6083    0.0000 O   0  0  0  0  0  0  0  0  0  0  0  0
    1.3542   -1.6792    0.0000 O   0  0  0  0  0  0  0  0  0  0  0  0
   10.4917   -1.8792    0.0000 O   0  0  0  0  0  0  0  0  0  0  0  0
    6.0625   -5.1667    0.0000 C   0  0  0  0  0  0  0  0  0  0  0  0
    0.6375   -2.9250    0.0000 C   0  0  0  0  0  0  0  0  0  0  0  0
   11.2000   -0.6250    0.0000 C   0  0  0  0  0  0  0  0  0  0  0  0
    1.3542   -0.8542    0.0000 C   0  0  0  0  0  0  0  0  0  0  0  0
    9.7500    1.0250    0.0000 C   0  0  0  0  0  0  0  0  0  0  0  0
   10.4917   -2.7042    0.0000 C   0  0  0  0  0  0  0  0  0  0  0  0
    2.0667   -4.5792    0.0000 C   0  0  0  0  0  0  0  0  0  0  0  0
    6.4667   -5.8917    0.0000 C   0  0  0  0  0  0  0  0  0  0  0  0
    6.0500   -6.6000    0.0000 C   0  0  0  0  0  0  0  0  0  0  0  0
  2  1  1  0
  3 20  1  0
  4  3  1  0
  5  2  1  0
  6  4  1  0
  7  1  1  0
  8 13  2  0
  9 14  1  0
 10  7  1  0
 11 18  2  0
 12 16  1  0
 13 19  1  0
 14 17  2  0
 15  1  1  0
 16  5  2  0
 17  5  1  0
 18  6  1  0
 19  6  2  0
 20 15  1  0
 21 25  1  0
 22  2  2  0
 23  4  2  0
 24  7  1  0
 25 24  1  0
 26 21  2  0
 27  8  1  0
 28  9  1  0
 29 11  1  0
 30 14  1  0
 31 13  1  0
 32 12  1  0
 33 21  1  0
 34 27  1  0
 35 28  1  0
 36 31  1  0
 37 30  1  0
 38 32  1  0
 39 29  1  0
 40 33  1  0
 41 40  1  0
 10  3  1  0
 12  9  2  0
  8 11  1  0
M  END

> <chembl_id>
CHEMBL6341

> <chembl_pref_name>
None

$$$$

     RDKit          2D

 45 47  0  0  0  0  0  0  0  0999 V2000
    4.7750  -17.4167    0.0000 N   0  0  0  0  0  0  0  0  0  0  0  0
    5.4917  -17.8375    0.0000 C   0  0  0  0  0  0  0  0  0  0  0  0
    2.8167  -18.0292    0.0000 N   0  0  0  0  0  0  0  0  0  0  0  0
    2.0917  -17.6167    0.0000 C   0  0  0  0  0  0  0  0  0  0  0  0
    6.2042  -17.4167    0.0000 C   0  0  0  0  0  0  0  0  0  0  0  0
    1.3792  -18.0375    0.0000 C   0  0  0  0  0  0  0  0  0  0  0  0
    4.3667  -18.1375    0.0000 C   0  0  0  0  0  0  0  0  0  0  0  0
    4.4042  -20.3167    0.0000 C   0  0  0  0  0  0  0  0  0  0  0  0
    7.6375  -16.5792    0.0000 C   0  0  0  0  0  0  0  0  0  0  0  0
   -0.0583  -18.8667    0.0000 C   0  0  0  0  0  0  0  0  0  0  0  0
    3.4500  -17.8042    0.0000 C   0  0  0  0  0  0  0  0  0  0  0  0
    7.6417  -17.4042    0.0000 C   0  0  0  0  0  0  0  0  0  0  0  0
   -0.0583  -18.0417    0.0000 C   0  0  0  0  0  0  0  0  0  0  0  0
    6.9125  -16.1667    0.0000 C   0  0  0  0  0  0  0  0  0  0  0  0
    0.6542  -19.2875    0.0000 C   0  0  0  0  0  0  0  0  0  0  0  0
    4.0917  -17.6417    0.0000 C   0  0  0  0  0  0  0  0  0  0  0  0
    6.2000  -16.5917    0.0000 C   0  0  0  0  0  0  0  0  0  0  0  0
    6.9292  -17.8292    0.0000 C   0  0  0  0  0  0  0  0  0  0  0  0
    0.6542  -17.6250    0.0000 C   0  0  0  0  0  0  0  0  0  0  0  0
    1.3792  -18.8667    0.0000 C   0  0  0  0  0  0  0  0  0  0  0  0
    4.1250  -19.5417    0.0000 O   0  0  0  0  0  0  0  0  0  0  0  0
    3.2250  -17.3042    0.0000 C   0  0  0  0  0  0  0  0  0  0  0  0
    3.8792  -20.9542    0.0000 N   0  0  0  0  0  0  0  0  0  0  0  0
    5.4917  -18.6625    0.0000 O   0  0  0  0  0  0  0  0  0  0  0  0
    4.6500  -18.9125    0.0000 C   0  0  0  0  0  0  0  0  0  0  0  0
    2.0917  -16.7917    0.0000 O   0  0  0  0  0  0  0  0  0  0  0  0
    5.2167  -20.4625    0.0000 O   0  0  0  0  0  0  0  0  0  0  0  0
    8.3542  -16.1625    0.0000 O   0  0  0  0  0  0  0  0  0  0  0  0
   -0.7833  -19.2875    0.0000 O   0  0  0  0  0  0  0  0  0  0  0  0
    8.3625  -17.8250    0.0000 O   0  0  0  0  0  0  0  0  0  0  0  0
    0.6542  -20.1167    0.0000 O   0  0  0  0  0  0  0  0  0  0  0  0
    6.9042  -15.3417    0.0000 O   0  0  0  0  0  0  0  0  0  0  0  0
   -0.7750  -17.6292    0.0000 O   0  0  0  0  0  0  0  0  0  0  0  0
    4.1667  -21.7292    0.0000 C   0  0  0  0  0  0  0  0  0  0  0  0
    3.0667  -20.8167    0.0000 C   0  0  0  0  0  0  0  0  0  0  0  0
   -1.4958  -18.8667    0.0000 C   0  0  0  0  0  0  0  0  0  0  0  0
    9.0667  -16.5667    0.0000 C   0  0  0  0  0  0  0  0  0  0  0  0
   -0.7750  -16.8000    0.0000 C   0  0  0  0  0  0  0  0  0  0  0  0
    7.6167  -14.9167    0.0000 C   0  0  0  0  0  0  0  0  0  0  0  0
    8.3667  -18.6542    0.0000 C   0  0  0  0  0  0  0  0  0  0  0  0
   -0.0583  -20.5292    0.0000 C   0  0  0  0  0  0  0  0  0  0  0  0
    2.7792  -20.0417    0.0000 C   0  0  0  0  0  0  0  0  0  0  0  0
    4.9792  -21.8667    0.0000 C   0  0  0  0  0  0  0  0  0  0  0  0
    1.9667  -19.9000    0.0000 C   0  0  0  0  0  0  0  0  0  0  0  0
    5.2667  -22.6417    0.0000 C   0  0  0  0  0  0  0  0  0  0  0  0
  2  1  1  0
  3 22  1  0
  4  3  1  0
  5  2  1  0
  6  4  1  0
  7  1  1  0
  8 21  1  0
  9 12  2  0
 10 15  1  0
 11  7  1  0
 12 18  1  0
 13 19  1  0
 14 17  2  0
 15 20  2  0
 16  1  1  0
 17  5  1  0
 18  5  2  0
 19  6  2  0
 20  6  1  0
 21 25  1  0
 22 16  1  0
 23  8  1  0
 24  2  2  0
 25  7  1  0
 26  4  2  0
 27  8  2  0
 28  9  1  0
 29 10  1  0
 30 12  1  0
 31 15  1  0
 32 14  1  0
 33 13  1  0
 34 23  1  0
 35 23  1  0
 36 29  1  0
 37 28  1  0
 38 33  1  0
 39 32  1  0
 40 30  1  0
 41 31  1  0
 42 35  1  0
 43 34  1  0
 44 42  1  0
 45 43  1  0
  3 11  1  0
  9 14  1  0
 13 10  2  0
M  END

> <chembl_id>
CHEMBL269131

> <chembl_pref_name>
None

$$$$

     RDKit          2D

 43 45  0  0  0  0  0  0  0  0999 V2000
   -2.6201    1.9619    0.0000 C   0  0  0  0  0  0  0  0  0  0  0  0
   -3.3346    2.3744    0.0000 C   0  0  0  0  0  0  0  0  0  0  0  0
   -3.3346    3.1994    0.0000 C   0  0  0  0  0  0  0  0  0  0  0  0
   -2.6201    3.6119    0.0000 C   0  0  0  0  0  0  0  0  0  0  0  0
   -1.9056    3.1994    0.0000 C   0  0  0  0  0  0  0  0  0  0  0  0
   -1.9056    2.3744    0.0000 C   0  0  0  0  0  0  0  0  0  0  0  0
   -2.6201    1.1369    0.0000 C   0  0  0  0  0  0  0  0  0  0  0  0
   -1.9056    0.7244    0.0000 N   0  0  0  0  0  0  0  0  0  0  0  0
   -3.3346    0.7244    0.0000 O   0  0  0  0  0  0  0  0  0  0  0  0
   -1.1912    1.1369    0.0000 C   0  0  0  0  0  0  0  0  0  0  0  0
   -0.4767    0.7244    0.0000 C   0  0  0  0  0  0  0  0  0  0  0  0
   -0.4767   -0.1006    0.0000 N   0  0  0  0  0  0  0  0  0  0  0  0
   -1.1912   -0.5131    0.0000 C   0  0  0  0  0  0  0  0  0  0  0  0
   -1.9056   -0.1006    0.0000 C   0  0  0  0  0  0  0  0  0  0  0  0
    0.2378   -0.5131    0.0000 C   0  0  0  0  0  0  0  0  0  0  0  0
    0.2378   -1.3381    0.0000 C   0  0  0  0  0  0  0  0  0  0  0  0
    0.9522   -0.1006    0.0000 O   0  0  0  0  0  0  0  0  0  0  0  0
    0.9522   -1.7506    0.0000 C   0  0  0  0  0  0  0  0  0  0  0  0
    0.9522   -2.5756    0.0000 C   0  0  0  0  0  0  0  0  0  0  0  0
    0.2378   -2.9881    0.0000 C   0  0  0  0  0  0  0  0  0  0  0  0
   -0.4767   -2.5756    0.0000 C   0  0  0  0  0  0  0  0  0  0  0  0
   -0.4767   -1.7506    0.0000 C   0  0  0  0  0  0  0  0  0  0  0  0
   -1.1912   -2.9881    0.0000 O   0  0  0  0  0  0  0  0  0  0  0  0
   -1.9056   -2.5756    0.0000 C   0  0  0  0  0  0  0  0  0  0  0  0
    0.2378   -3.8131    0.0000 O   0  0  0  0  0  0  0  0  0  0  0  0
   -0.4767   -4.2256    0.0000 C   0  0  0  0  0  0  0  0  0  0  0  0
    1.6667   -2.9881    0.0000 O   0  0  0  0  0  0  0  0  0  0  0  0
    1.6667   -3.8131    0.0000 C   0  0  0  0  0  0  0  0  0  0  0  0
    0.2378    1.1369    0.0000 C   0  0  0  0  0  0  0  0  0  0  0  0
    0.9522    0.7244    0.0000 O   0  0  0  0  0  0  0  0  0  0  0  0
    1.6667    1.1369    0.0000 C   0  0  0  0  0  0  0  0  0  0  0  0
    2.3812    0.7244    0.0000 N   0  0  0  0  0  0  0  0  0  0  0  0
    1.6667    1.9619    0.0000 O   0  0  0  0  0  0  0  0  0  0  0  0
    2.3812   -0.1006    0.0000 C   0  0  0  0  0  0  0  0  0  0  0  0
    3.0956    1.1369    0.0000 C   0  0  0  0  0  0  0  0  0  0  0  0
    3.0956   -0.5131    0.0000 C   0  0  0  0  0  0  0  0  0  0  0  0
    3.8101    0.7244    0.0000 C   0  0  0  0  0  0  0  0  0  0  0  0
   -2.6201    4.4369    0.0000 O   0  0  0  0  0  0  0  0  0  0  0  0
   -3.3346    4.8494    0.0000 C   0  0  0  0  0  0  0  0  0  0  0  0
   -4.0491    3.6119    0.0000 O   0  0  0  0  0  0  0  0  0  0  0  0
   -4.0491    4.4369    0.0000 C   0  0  0  0  0  0  0  0  0  0  0  0
   -1.1912    3.6119    0.0000 O   0  0  0  0  0  0  0  0  0  0  0  0
   -0.4767    3.1994    0.0000 C   0  0  0  0  0  0  0  0  0  0  0  0
  1  2  2  0
  2  3  1  0
  3  4  2  0
  4  5  1  0
  5  6  2  0
  6  1  1  0
  1  7  1  0
  7  8  1  0
  7  9  2  0
  8 10  1  0
 14  8  1  0
 10 11  1  0
 11 12  1  0
 12 13  1  0
 13 14  1  0
 12 15  1  0
 15 16  1  0
 15 17  2  0
 16 18  2  0
 22 16  1  0
 18 19  1  0
 19 20  2  0
 20 21  1  0
 21 22  2  0
 21 23  1  0
 23 24  1  0
 20 25  1  0
 25 26  1  0
 19 27  1  0
 27 28  1  0
 11 29  1  0
 29 30  1  0
 30 31  1  0
 31 32  1  0
 31 33  2  0
 32 34  1  0
 32 35  1  0
 34 36  1  0
 35 37  1  0
  4 38  1  0
 38 39  1  0
  3 40  1  0
 40 41  1  0
  5 42  1  0
 42 43  1  0
M  END

> <chembl_id>
CHEMBL6322

> <chembl_pref_name>
PMS-601

$$$$

     RDKit          2D

 51 54  0  0  0  0  0  0  0  0999 V2000
    4.7750  -17.4167    0.0000 N   0  0  0  0  0  0  0  0  0  0  0  0
    5.4917  -17.8375    0.0000 C   0  0  0  0  0  0  0  0  0  0  0  0
    2.8167  -18.0292    0.0000 N   0  0  0  0  0  0  0  0  0  0  0  0
    2.0917  -17.6167    0.0000 C   0  0  0  0  0  0  0  0  0  0  0  0
    6.2042  -17.4167    0.0000 C   0  0  0  0  0  0  0  0  0  0  0  0
    1.3792  -18.0375    0.0000 C   0  0  0  0  0  0  0  0  0  0  0  0
    4.3667  -18.1375    0.0000 C   0  0  0  0  0  0  0  0  0  0  0  0
    4.7375  -23.2750    0.0000 C   0  0  0  0  0  0  0  0  0  0  0  0
    7.6375  -16.5792    0.0000 C   0  0  0  0  0  0  0  0  0  0  0  0
   -0.0583  -18.8667    0.0000 C   0  0  0  0  0  0  0  0  0  0  0  0
    3.4500  -17.8042    0.0000 C   0  0  0  0  0  0  0  0  0  0  0  0
    3.9250  -23.1292    0.0000 C   0  0  0  0  0  0  0  0  0  0  0  0
    5.2667  -22.6375    0.0000 C   0  0  0  0  0  0  0  0  0  0  0  0
    4.4042  -20.3167    0.0000 C   0  0  0  0  0  0  0  0  0  0  0  0
    0.6542  -19.2875    0.0000 C   0  0  0  0  0  0  0  0  0  0  0  0
    7.6417  -17.4042    0.0000 C   0  0  0  0  0  0  0  0  0  0  0  0
   -0.0583  -18.0417    0.0000 C   0  0  0  0  0  0  0  0  0  0  0  0
    6.9125  -16.1667    0.0000 C   0  0  0  0  0  0  0  0  0  0  0  0
    4.1667  -21.7292    0.0000 C   0  0  0  0  0  0  0  0  0  0  0  0
    4.0917  -17.6417    0.0000 C   0  0  0  0  0  0  0  0  0  0  0  0
    6.2000  -16.5917    0.0000 C   0  0  0  0  0  0  0  0  0  0  0  0
    6.9292  -17.8292    0.0000 C   0  0  0  0  0  0  0  0  0  0  0  0
    0.6542  -17.6250    0.0000 C   0  0  0  0  0  0  0  0  0  0  0  0
    1.3792  -18.8667    0.0000 C   0  0  0  0  0  0  0  0  0  0  0  0
    3.6417  -22.3625    0.0000 C   0  0  0  0  0  0  0  0  0  0  0  0
    4.9792  -21.8667    0.0000 C   0  0  0  0  0  0  0  0  0  0  0  0
    3.8792  -20.9542    0.0000 N   0  0  0  0  0  0  0  0  0  0  0  0
    3.2250  -17.3042    0.0000 C   0  0  0  0  0  0  0  0  0  0  0  0
    5.4917  -18.6625    0.0000 O   0  0  0  0  0  0  0  0  0  0  0  0
    2.0917  -16.7917    0.0000 O   0  0  0  0  0  0  0  0  0  0  0  0
    4.6500  -18.9125    0.0000 C   0  0  0  0  0  0  0  0  0  0  0  0
    4.1250  -19.5417    0.0000 O   0  0  0  0  0  0  0  0  0  0  0  0
    5.2167  -20.4625    0.0000 O   0  0  0  0  0  0  0  0  0  0  0  0
    8.3542  -16.1625    0.0000 O   0  0  0  0  0  0  0  0  0  0  0  0
   -0.7833  -19.2875    0.0000 O   0  0  0  0  0  0  0  0  0  0  0  0
    5.0250  -24.0500    0.0000 O   0  0  0  0  0  0  0  0  0  0  0  0
    6.0792  -22.7750    0.0000 O   0  0  0  0  0  0  0  0  0  0  0  0
    3.3917  -23.7667    0.0000 O   0  0  0  0  0  0  0  0  0  0  0  0
    0.6542  -20.1167    0.0000 O   0  0  0  0  0  0  0  0  0  0  0  0
    6.9042  -15.3417    0.0000 O   0  0  0  0  0  0  0  0  0  0  0  0
   -0.7750  -17.6292    0.0000 O   0  0  0  0  0  0  0  0  0  0  0  0
    8.3625  -17.8250    0.0000 O   0  0  0  0  0  0  0  0  0  0  0  0
    9.0667  -16.5667    0.0000 C   0  0  0  0  0  0  0  0  0  0  0  0
    4.5000  -24.6792    0.0000 C   0  0  0  0  0  0  0  0  0  0  0  0
   -1.4958  -18.8667    0.0000 C   0  0  0  0  0  0  0  0  0  0  0  0
   -0.7750  -16.8000    0.0000 C   0  0  0  0  0  0  0  0  0  0  0  0
    6.3667  -23.5417    0.0000 C   0  0  0  0  0  0  0  0  0  0  0  0
    7.6167  -14.9167    0.0000 C   0  0  0  0  0  0  0  0  0  0  0  0
    8.3667  -18.6542    0.0000 C   0  0  0  0  0  0  0  0  0  0  0  0
   -0.0583  -20.5292    0.0000 C   0  0  0  0  0  0  0  0  0  0  0  0
    2.5792  -23.6292    0.0000 C   0  0  0  0  0  0  0  0  0  0  0  0
  2  1  1  0
  3 28  1  0
  4  3  1  0
  5  2  1  0
  6  4  1  0
  7  1  1  0
  8 13  1  0
  9 16  2  0
 10 15  1  0
 11  7  1  0
 12 25  1  0
 13 26  2  0
 14 32  1  0
 15 24  2  0
 16 22  1  0
 17 23  1  0
 18 21  2  0
 19 27  1  0
 20  1  1  0
 21  5  1  0
 22  5  2  0
 23  6  2  0
 24  6  1  0
 25 19  2  0
 26 19  1  0
 27 14  1  0
 28 20  1  0
 29  2  2  0
 30  4  2  0
 31  7  1  0
 32 31  1  0
 33 14  2  0
 34  9  1  0
 35 10  1  0
 36  8  1  0
 37 13  1  0
 38 12  1  0
 39 15  1  0
 40 18  1  0
 41 17  1  0
 42 16  1  0
 43 34  1  0
 44 36  1  0
 45 35  1  0
 46 41  1  0
 47 37  1  0
 48 40  1  0
 49 42  1  0
 50 39  1  0
 51 38  1  0
  3 11  1  0
 18  9  1  0
 17 10  2  0
 12  8  2  0
M  END

> <chembl_id>
CHEMBL267357

> <chembl_pref_name>
None

$$$$

     RDKit          2D

 44 46  0  0  0  0  0  0  0  0999 V2000
    4.7750  -17.4167    0.0000 N   0  0  0  0  0  0  0  0  0  0  0  0
    5.4917  -17.8375    0.0000 C   0  0  0  0  0  0  0  0  0  0  0  0
    2.8167  -18.0292    0.0000 N   0  0  0  0  0  0  0  0  0  0  0  0
    2.0917  -17.6167    0.0000 C   0  0  0  0  0  0  0  0  0  0  0  0
    6.2042  -17.4167    0.0000 C   0  0  0  0  0  0  0  0  0  0  0  0
    1.3792  -18.0375    0.0000 C   0  0  0  0  0  0  0  0  0  0  0  0
    4.3667  -18.1375    0.0000 C   0  0  0  0  0  0  0  0  0  0  0  0
   -0.0583  -18.8667    0.0000 C   0  0  0  0  0  0  0  0  0  0  0  0
    7.6375  -16.5792    0.0000 C   0  0  0  0  0  0  0  0  0  0  0  0
    3.4500  -17.8042    0.0000 C   0  0  0  0  0  0  0  0  0  0  0  0
    0.6542  -19.2875    0.0000 C   0  0  0  0  0  0  0  0  0  0  0  0
    7.6417  -17.4042    0.0000 C   0  0  0  0  0  0  0  0  0  0  0  0
   -0.0583  -18.0417    0.0000 C   0  0  0  0  0  0  0  0  0  0  0  0
    6.9125  -16.1667    0.0000 C   0  0  0  0  0  0  0  0  0  0  0  0
    4.4042  -20.3167    0.0000 C   0  0  0  0  0  0  0  0  0  0  0  0
    4.0917  -17.6417    0.0000 C   0  0  0  0  0  0  0  0  0  0  0  0
    6.2000  -16.5917    0.0000 C   0  0  0  0  0  0  0  0  0  0  0  0
    6.9292  -17.8292    0.0000 C   0  0  0  0  0  0  0  0  0  0  0  0
    0.6542  -17.6250    0.0000 C   0  0  0  0  0  0  0  0  0  0  0  0
    1.3792  -18.8667    0.0000 C   0  0  0  0  0  0  0  0  0  0  0  0
    3.2250  -17.3042    0.0000 C   0  0  0  0  0  0  0  0  0  0  0  0
    3.8792  -20.9542    0.0000 N   0  0  0  0  0  0  0  0  0  0  0  0
    5.4917  -18.6625    0.0000 O   0  0  0  0  0  0  0  0  0  0  0  0
    2.0917  -16.7917    0.0000 O   0  0  0  0  0  0  0  0  0  0  0  0
    4.6500  -18.9125    0.0000 C   0  0  0  0  0  0  0  0  0  0  0  0
    4.1250  -19.5417    0.0000 O   0  0  0  0  0  0  0  0  0  0  0  0
    5.2167  -20.4625    0.0000 O   0  0  0  0  0  0  0  0  0  0  0  0
    8.3542  -16.1625    0.0000 O   0  0  0  0  0  0  0  0  0  0  0  0
   -0.7833  -19.2875    0.0000 O   0  0  0  0  0  0  0  0  0  0  0  0
    8.3625  -17.8250    0.0000 O   0  0  0  0  0  0  0  0  0  0  0  0
    0.6542  -20.1167    0.0000 O   0  0  0  0  0  0  0  0  0  0  0  0
    6.9042  -15.3417    0.0000 O   0  0  0  0  0  0  0  0  0  0  0  0
   -0.7750  -17.6292    0.0000 O   0  0  0  0  0  0  0  0  0  0  0  0
    4.1667  -21.7292    0.0000 C   0  0  0  0  0  0  0  0  0  0  0  0
    9.0667  -16.5667    0.0000 C   0  0  0  0  0  0  0  0  0  0  0  0
   -1.4958  -18.8667    0.0000 C   0  0  0  0  0  0  0  0  0  0  0  0
   -0.0583  -20.5292    0.0000 C   0  0  0  0  0  0  0  0  0  0  0  0
   -0.7750  -16.8000    0.0000 C   0  0  0  0  0  0  0  0  0  0  0  0
    7.6167  -14.9167    0.0000 C   0  0  0  0  0  0  0  0  0  0  0  0
    8.3667  -18.6542    0.0000 C   0  0  0  0  0  0  0  0  0  0  0  0
    3.6417  -22.3625    0.0000 C   0  0  0  0  0  0  0  0  0  0  0  0
    4.9792  -21.8667    0.0000 C   0  0  0  0  0  0  0  0  0  0  0  0
    2.8250  -22.2250    0.0000 C   0  0  0  0  0  0  0  0  0  0  0  0
    5.2667  -22.6417    0.0000 C   0  0  0  0  0  0  0  0  0  0  0  0
  2  1  1  0
  3 21  1  0
  4  3  1  0
  5  2  1  0
  6  4  1  0
  7  1  1  0
  8 11  1  0
  9 12  2  0
 10  7  1  0
 11 20  2  0
 12 18  1  0
 13 19  1  0
 14 17  2  0
 15 26  1  0
 16  1  1  0
 17  5  1  0
 18  5  2  0
 19  6  2  0
 20  6  1  0
 21 16  1  0
 22 15  1  0
 23  2  2  0
 24  4  2  0
 25  7  1  0
 26 25  1  0
 27 15  2  0
 28  9  1  0
 29  8  1  0
 30 12  1  0
 31 11  1  0
 32 14  1  0
 33 13  1  0
 34 22  1  0
 35 28  1  0
 36 29  1  0
 37 31  1  0
 38 33  1  0
 39 32  1  0
 40 30  1  0
 41 34  1  0
 42 34  1  0
 43 41  1  0
 44 42  1  0
  3 10  1  0
  9 14  1  0
 13  8  2  0
M  END

> <chembl_id>
CHEMBL380444

> <chembl_pref_name>
None

$$$$

     RDKit          2D

 44 46  0  0  0  0  0  0  0  0999 V2000
    4.7750  -17.4167    0.0000 N   0  0  0  0  0  0  0  0  0  0  0  0
    5.4917  -17.8375    0.0000 C   0  0  0  0  0  0  0  0  0  0  0  0
    2.8167  -18.0292    0.0000 N   0  0  0  0  0  0  0  0  0  0  0  0
    2.0917  -17.6167    0.0000 C   0  0  0  0  0  0  0  0  0  0  0  0
    6.2042  -17.4167    0.0000 C   0  0  0  0  0  0  0  0  0  0  0  0
    1.3792  -18.0375    0.0000 C   0  0  0  0  0  0  0  0  0  0  0  0
    4.3667  -18.1375    0.0000 C   0  0  0  0  0  0  0  0  0  0  0  0
   -0.0583  -18.8667    0.0000 C   0  0  0  0  0  0  0  0  0  0  0  0
    7.6375  -16.5792    0.0000 C   0  0  0  0  0  0  0  0  0  0  0  0
    3.4500  -17.8042    0.0000 C   0  0  0  0  0  0  0  0  0  0  0  0
    0.6542  -19.2875    0.0000 C   0  0  0  0  0  0  0  0  0  0  0  0
    7.6417  -17.4042    0.0000 C   0  0  0  0  0  0  0  0  0  0  0  0
   -0.0583  -18.0417    0.0000 C   0  0  0  0  0  0  0  0  0  0  0  0
    6.9125  -16.1667    0.0000 C   0  0  0  0  0  0  0  0  0  0  0  0
    4.4042  -20.3167    0.0000 C   0  0  0  0  0  0  0  0  0  0  0  0
    4.0917  -17.6417    0.0000 C   0  0  0  0  0  0  0  0  0  0  0  0
    6.2000  -16.5917    0.0000 C   0  0  0  0  0  0  0  0  0  0  0  0
    6.9292  -17.8292    0.0000 C   0  0  0  0  0  0  0  0  0  0  0  0
    0.6542  -17.6250    0.0000 C   0  0  0  0  0  0  0  0  0  0  0  0
    1.3792  -18.8667    0.0000 C   0  0  0  0  0  0  0  0  0  0  0  0
    3.2250  -17.3042    0.0000 C   0  0  0  0  0  0  0  0  0  0  0  0
    5.4917  -18.6625    0.0000 O   0  0  0  0  0  0  0  0  0  0  0  0
    3.8792  -20.9542    0.0000 N   0  0  0  0  0  0  0  0  0  0  0  0
    2.0917  -16.7917    0.0000 O   0  0  0  0  0  0  0  0  0  0  0  0
    4.6500  -18.9125    0.0000 C   0  0  0  0  0  0  0  0  0  0  0  0
    4.1250  -19.5417    0.0000 O   0  0  0  0  0  0  0  0  0  0  0  0
    5.2167  -20.4625    0.0000 O   0  0  0  0  0  0  0  0  0  0  0  0
    8.3542  -16.1625    0.0000 O   0  0  0  0  0  0  0  0  0  0  0  0
   -0.7833  -19.2875    0.0000 O   0  0  0  0  0  0  0  0  0  0  0  0
    8.3625  -17.8250    0.0000 O   0  0  0  0  0  0  0  0  0  0  0  0
    0.6542  -20.1167    0.0000 O   0  0  0  0  0  0  0  0  0  0  0  0
    6.9042  -15.3417    0.0000 O   0  0  0  0  0  0  0  0  0  0  0  0
   -0.7750  -17.6292    0.0000 O   0  0  0  0  0  0  0  0  0  0  0  0
    4.1667  -21.7292    0.0000 C   0  0  0  0  0  0  0  0  0  0  0  0
    3.6417  -22.3625    0.0000 C   0  0  0  0  0  0  0  0  0  0  0  0
   -1.4958  -18.8667    0.0000 C   0  0  0  0  0  0  0  0  0  0  0  0
    9.0667  -16.5667    0.0000 C   0  0  0  0  0  0  0  0  0  0  0  0
   -0.7750  -16.8000    0.0000 C   0  0  0  0  0  0  0  0  0  0  0  0
    7.6167  -14.9167    0.0000 C   0  0  0  0  0  0  0  0  0  0  0  0
    8.3667  -18.6542    0.0000 C   0  0  0  0  0  0  0  0  0  0  0  0
   -0.0583  -20.5292    0.0000 C   0  0  0  0  0  0  0  0  0  0  0  0
    3.9250  -23.1375    0.0000 C   0  0  0  0  0  0  0  0  0  0  0  0
    2.8250  -22.2250    0.0000 C   0  0  0  0  0  0  0  0  0  0  0  0
    3.4000  -23.7667    0.0000 C   0  0  0  0  0  0  0  0  0  0  0  0
  2  1  1  0
  3 21  1  0
  4  3  1  0
  5  2  1  0
  6  4  1  0
  7  1  1  0
  8 11  1  0
  9 12  2  0
 10  7  1  0
 11 20  2  0
 12 18  1  0
 13 19  1  0
 14 17  2  0
 15 26  1  0
 16  1  1  0
 17  5  1  0
 18  5  2  0
 19  6  2  0
 20  6  1  0
 21 16  1  0
 22  2  2  0
 23 15  1  0
 24  4  2  0
 25  7  1  0
 26 25  1  0
 27 15  2  0
 28  9  1  0
 29  8  1  0
 30 12  1  0
 31 11  1  0
 32 14  1  0
 33 13  1  0
 34 23  1  0
 35 34  1  0
 36 29  1  0
 37 28  1  0
 38 33  1  0
 39 32  1  0
 40 30  1  0
 41 31  1  0
 42 35  1  0
 43 35  1  0
 44 42  1  0
  3 10  1  0
  9 14  1  0
 13  8  2  0
M  END

> <chembl_id>
CHEMBL204022

> <chembl_pref_name>
None

$$$$

     RDKit          2D

 47 49  0  0  0  0  0  0  0  0999 V2000
    5.9917  -19.0417    0.0000 N   0  0  0  0  0  0  0  0  0  0  0  0
    6.7042  -19.4625    0.0000 C   0  0  0  0  0  0  0  0  0  0  0  0
    4.0292  -19.6542    0.0000 N   0  0  0  0  0  0  0  0  0  0  0  0
    3.3125  -19.2417    0.0000 C   0  0  0  0  0  0  0  0  0  0  0  0
    7.4250  -19.0417    0.0000 C   0  0  0  0  0  0  0  0  0  0  0  0
    2.5917  -19.6625    0.0000 C   0  0  0  0  0  0  0  0  0  0  0  0
    5.5792  -19.7625    0.0000 C   0  0  0  0  0  0  0  0  0  0  0  0
    1.1542  -20.4917    0.0000 C   0  0  0  0  0  0  0  0  0  0  0  0
    8.8542  -18.2042    0.0000 C   0  0  0  0  0  0  0  0  0  0  0  0
    4.6667  -19.4292    0.0000 C   0  0  0  0  0  0  0  0  0  0  0  0
    1.8750  -20.9125    0.0000 C   0  0  0  0  0  0  0  0  0  0  0  0
    8.8542  -19.0292    0.0000 C   0  0  0  0  0  0  0  0  0  0  0  0
    1.1542  -19.6667    0.0000 C   0  0  0  0  0  0  0  0  0  0  0  0
    8.1292  -17.7917    0.0000 C   0  0  0  0  0  0  0  0  0  0  0  0
    5.6250  -21.9417    0.0000 C   0  0  0  0  0  0  0  0  0  0  0  0
    5.3125  -19.2667    0.0000 C   0  0  0  0  0  0  0  0  0  0  0  0
    7.4167  -18.2167    0.0000 C   0  0  0  0  0  0  0  0  0  0  0  0
    8.1417  -19.4542    0.0000 C   0  0  0  0  0  0  0  0  0  0  0  0
    1.8750  -19.2500    0.0000 C   0  0  0  0  0  0  0  0  0  0  0  0
    2.5917  -20.4917    0.0000 C   0  0  0  0  0  0  0  0  0  0  0  0
    4.4417  -18.9292    0.0000 C   0  0  0  0  0  0  0  0  0  0  0  0
    6.7042  -20.2875    0.0000 O   0  0  0  0  0  0  0  0  0  0  0  0
    5.1000  -22.5792    0.0000 N   0  0  0  0  0  0  0  0  0  0  0  0
    3.3042  -18.4167    0.0000 O   0  0  0  0  0  0  0  0  0  0  0  0
    5.8667  -20.5375    0.0000 C   0  0  0  0  0  0  0  0  0  0  0  0
    5.3417  -21.1667    0.0000 O   0  0  0  0  0  0  0  0  0  0  0  0
    6.4375  -22.0875    0.0000 O   0  0  0  0  0  0  0  0  0  0  0  0
    9.5667  -17.7875    0.0000 O   0  0  0  0  0  0  0  0  0  0  0  0
    0.4375  -20.9125    0.0000 O   0  0  0  0  0  0  0  0  0  0  0  0
    9.5792  -19.4500    0.0000 O   0  0  0  0  0  0  0  0  0  0  0  0
    1.8750  -21.7417    0.0000 O   0  0  0  0  0  0  0  0  0  0  0  0
    8.1167  -16.9667    0.0000 O   0  0  0  0  0  0  0  0  0  0  0  0
    0.4417  -19.2542    0.0000 O   0  0  0  0  0  0  0  0  0  0  0  0
    5.3792  -23.3542    0.0000 C   0  0  0  0  0  0  0  0  0  0  0  0
    4.8542  -23.9875    0.0000 C   0  0  0  0  0  0  0  0  0  0  0  0
   -0.2750  -20.4917    0.0000 C   0  0  0  0  0  0  0  0  0  0  0  0
   10.2875  -18.1917    0.0000 C   0  0  0  0  0  0  0  0  0  0  0  0
    0.4417  -18.4250    0.0000 C   0  0  0  0  0  0  0  0  0  0  0  0
    8.8375  -16.5417    0.0000 C   0  0  0  0  0  0  0  0  0  0  0  0
    9.5792  -20.2792    0.0000 C   0  0  0  0  0  0  0  0  0  0  0  0
    1.1542  -22.1542    0.0000 C   0  0  0  0  0  0  0  0  0  0  0  0
    4.0417  -23.8500    0.0000 C   0  0  0  0  0  0  0  0  0  0  0  0
    5.1417  -24.7625    0.0000 C   0  0  0  0  0  0  0  0  0  0  0  0
    4.9000  -26.1667    0.0000 C   0  0  0  0  0  0  0  0  0  0  0  0
    4.6167  -25.3917    0.0000 C   0  0  0  0  0  0  0  0  0  0  0  0
    3.5167  -24.4792    0.0000 C   0  0  0  0  0  0  0  0  0  0  0  0
    4.3667  -26.8042    0.0000 C   0  0  0  0  0  0  0  0  0  0  0  0
  2  1  1  0
  3 21  1  0
  4  3  1  0
  5  2  1  0
  6  4  1  0
  7  1  1  0
  8 11  1  0
  9 12  2  0
 10  7  1  0
 11 20  2  0
 12 18  1  0
 13 19  1  0
 14 17  2  0
 15 26  1  0
 16  1  1  0
 17  5  1  0
 18  5  2  0
 19  6  2  0
 20  6  1  0
 21 16  1  0
 22  2  2  0
 23 15  1  0
 24  4  2  0
 25  7  1  0
 26 25  1  0
 27 15  2  0
 28  9  1  0
 29  8  1  0
 30 12  1  0
 31 11  1  0
 32 14  1  0
 33 13  1  0
 34 23  1  0
 35 34  1  0
 36 29  1  0
 37 28  1  0
 38 33  1  0
 39 32  1  0
 40 30  1  0
 41 31  1  0
 42 35  1  0
 43 35  1  0
 44 45  1  0
 45 43  1  0
 46 42  1  0
 47 44  1  0
  3 10  1  0
 14  9  1  0
 13  8  2  0
M  END

> <chembl_id>
CHEMBL6350

> <chembl_pref_name>
None

$$$$

     RDKit          2D

 44 46  0  0  0  0  0  0  0  0999 V2000
    5.9917  -19.0417    0.0000 N   0  0  0  0  0  0  0  0  0  0  0  0
    6.7042  -19.4625    0.0000 C   0  0  0  0  0  0  0  0  0  0  0  0
    4.0292  -19.6542    0.0000 N   0  0  0  0  0  0  0  0  0  0  0  0
    3.3125  -19.2417    0.0000 C   0  0  0  0  0  0  0  0  0  0  0  0
    7.4250  -19.0417    0.0000 C   0  0  0  0  0  0  0  0  0  0  0  0
    2.5917  -19.6625    0.0000 C   0  0  0  0  0  0  0  0  0  0  0  0
    5.5792  -19.7625    0.0000 C   0  0  0  0  0  0  0  0  0  0  0  0
    1.1542  -20.4917    0.0000 C   0  0  0  0  0  0  0  0  0  0  0  0
    8.8542  -18.2042    0.0000 C   0  0  0  0  0  0  0  0  0  0  0  0
    4.6667  -19.4292    0.0000 C   0  0  0  0  0  0  0  0  0  0  0  0
    1.8750  -20.9125    0.0000 C   0  0  0  0  0  0  0  0  0  0  0  0
    8.8542  -19.0292    0.0000 C   0  0  0  0  0  0  0  0  0  0  0  0
    1.1542  -19.6667    0.0000 C   0  0  0  0  0  0  0  0  0  0  0  0
    8.1292  -17.7917    0.0000 C   0  0  0  0  0  0  0  0  0  0  0  0
    5.6250  -21.9417    0.0000 C   0  0  0  0  0  0  0  0  0  0  0  0
    5.3125  -19.2667    0.0000 C   0  0  0  0  0  0  0  0  0  0  0  0
    7.4167  -18.2167    0.0000 C   0  0  0  0  0  0  0  0  0  0  0  0
    8.1417  -19.4542    0.0000 C   0  0  0  0  0  0  0  0  0  0  0  0
    1.8750  -19.2500    0.0000 C   0  0  0  0  0  0  0  0  0  0  0  0
    2.5917  -20.4917    0.0000 C   0  0  0  0  0  0  0  0  0  0  0  0
    4.4417  -18.9292    0.0000 C   0  0  0  0  0  0  0  0  0  0  0  0
    6.7042  -20.2875    0.0000 O   0  0  0  0  0  0  0  0  0  0  0  0
    3.3042  -18.4167    0.0000 O   0  0  0  0  0  0  0  0  0  0  0  0
    5.8667  -20.5375    0.0000 C   0  0  0  0  0  0  0  0  0  0  0  0
    5.3417  -21.1667    0.0000 O   0  0  0  0  0  0  0  0  0  0  0  0
    6.4375  -22.0875    0.0000 O   0  0  0  0  0  0  0  0  0  0  0  0
    5.1000  -22.5792    0.0000 N   0  0  0  0  0  0  0  0  0  0  0  0
    9.5667  -17.7875    0.0000 O   0  0  0  0  0  0  0  0  0  0  0  0
    0.4375  -20.9125    0.0000 O   0  0  0  0  0  0  0  0  0  0  0  0
    9.5792  -19.4500    0.0000 O   0  0  0  0  0  0  0  0  0  0  0  0
    1.8750  -21.7417    0.0000 O   0  0  0  0  0  0  0  0  0  0  0  0
    8.1167  -16.9667    0.0000 O   0  0  0  0  0  0  0  0  0  0  0  0
    0.4417  -19.2542    0.0000 O   0  0  0  0  0  0  0  0  0  0  0  0
    5.3792  -23.3542    0.0000 C   0  0  0  0  0  0  0  0  0  0  0  0
    4.8542  -23.9875    0.0000 C   0  0  0  0  0  0  0  0  0  0  0  0
   -0.2750  -20.4917    0.0000 C   0  0  0  0  0  0  0  0  0  0  0  0
   10.2875  -18.1917    0.0000 C   0  0  0  0  0  0  0  0  0  0  0  0
    5.1417  -24.7625    0.0000 C   0  0  0  0  0  0  0  0  0  0  0  0
    8.8375  -16.5417    0.0000 C   0  0  0  0  0  0  0  0  0  0  0  0
    9.5792  -20.2792    0.0000 C   0  0  0  0  0  0  0  0  0  0  0  0
    1.1542  -22.1542    0.0000 C   0  0  0  0  0  0  0  0  0  0  0  0
    0.4417  -18.4250    0.0000 C   0  0  0  0  0  0  0  0  0  0  0  0
    4.6167  -25.3917    0.0000 C   0  0  0  0  0  0  0  0  0  0  0  0
    5.9542  -24.9042    0.0000 C   0  0  0  0  0  0  0  0  0  0  0  0
  2  1  1  0
  3 21  1  0
  4  3  1  0
  5  2  1  0
  6  4  1  0
  7  1  1  0
  8 11  1  0
  9 12  2  0
 10  7  1  0
 11 20  2  0
 12 18  1  0
 13 19  1  0
 14 17  2  0
 15 25  1  0
 16  1  1  0
 17  5  1  0
 18  5  2  0
 19  6  2  0
 20  6  1  0
 21 16  1  0
 22  2  2  0
 23  4  2  0
 24  7  1  0
 25 24  1  0
 26 15  2  0
 27 15  1  0
 28  9  1  0
 29  8  1  0
 30 12  1  0
 31 11  1  0
 32 14  1  0
 33 13  1  0
 34 27  1  0
 35 34  1  0
 36 29  1  0
 37 28  1  0
 38 35  1  0
 39 32  1  0
 40 30  1  0
 41 31  1  0
 42 33  1  0
 43 38  1  0
 44 38  1  0
  3 10  1  0
  9 14  1  0
 13  8  2  0
M  END

> <chembl_id>
CHEMBL6202

> <chembl_pref_name>
None

$$$$

     RDKit          2D

 44 46  0  0  0  0  0  0  0  0999 V2000
    5.9917  -19.0417    0.0000 N   0  0  0  0  0  0  0  0  0  0  0  0
    6.7042  -19.4625    0.0000 C   0  0  0  0  0  0  0  0  0  0  0  0
    4.0292  -19.6542    0.0000 N   0  0  0  0  0  0  0  0  0  0  0  0
    3.3125  -19.2417    0.0000 C   0  0  0  0  0  0  0  0  0  0  0  0
    7.4250  -19.0417    0.0000 C   0  0  0  0  0  0  0  0  0  0  0  0
    2.5917  -19.6625    0.0000 C   0  0  0  0  0  0  0  0  0  0  0  0
    5.5792  -19.7625    0.0000 C   0  0  0  0  0  0  0  0  0  0  0  0
    1.1542  -20.4917    0.0000 C   0  0  0  0  0  0  0  0  0  0  0  0
    8.8542  -18.2042    0.0000 C   0  0  0  0  0  0  0  0  0  0  0  0
    5.6250  -21.9417    0.0000 C   0  0  0  0  0  0  0  0  0  0  0  0
    4.6667  -19.4292    0.0000 C   0  0  0  0  0  0  0  0  0  0  0  0
    8.8542  -19.0292    0.0000 C   0  0  0  0  0  0  0  0  0  0  0  0
    1.1542  -19.6667    0.0000 C   0  0  0  0  0  0  0  0  0  0  0  0
    8.1292  -17.7917    0.0000 C   0  0  0  0  0  0  0  0  0  0  0  0
    1.8750  -20.9125    0.0000 C   0  0  0  0  0  0  0  0  0  0  0  0
    5.3125  -19.2667    0.0000 C   0  0  0  0  0  0  0  0  0  0  0  0
    7.4167  -18.2167    0.0000 C   0  0  0  0  0  0  0  0  0  0  0  0
    8.1417  -19.4542    0.0000 C   0  0  0  0  0  0  0  0  0  0  0  0
    1.8750  -19.2500    0.0000 C   0  0  0  0  0  0  0  0  0  0  0  0
    2.5917  -20.4917    0.0000 C   0  0  0  0  0  0  0  0  0  0  0  0
    5.1000  -22.5792    0.0000 N   0  0  0  0  0  0  0  0  0  0  0  0
    4.4417  -18.9292    0.0000 C   0  0  0  0  0  0  0  0  0  0  0  0
    6.7042  -20.2875    0.0000 O   0  0  0  0  0  0  0  0  0  0  0  0
    3.3042  -18.4167    0.0000 O   0  0  0  0  0  0  0  0  0  0  0  0
    5.8667  -20.5375    0.0000 C   0  0  0  0  0  0  0  0  0  0  0  0
    5.3417  -21.1667    0.0000 O   0  0  0  0  0  0  0  0  0  0  0  0
    5.3792  -23.3542    0.0000 C   0  0  0  0  0  0  0  0  0  0  0  0
    6.4375  -22.0875    0.0000 O   0  0  0  0  0  0  0  0  0  0  0  0
    0.4375  -20.9125    0.0000 O   0  0  0  0  0  0  0  0  0  0  0  0
    9.5667  -17.7875    0.0000 O   0  0  0  0  0  0  0  0  0  0  0  0
    1.8750  -21.7417    0.0000 O   0  0  0  0  0  0  0  0  0  0  0  0
    8.1167  -16.9667    0.0000 O   0  0  0  0  0  0  0  0  0  0  0  0
    0.4417  -19.2542    0.0000 O   0  0  0  0  0  0  0  0  0  0  0  0
    9.5792  -19.4500    0.0000 O   0  0  0  0  0  0  0  0  0  0  0  0
    4.8542  -23.9875    0.0000 C   0  0  0  0  0  0  0  0  0  0  0  0
    6.1917  -23.4917    0.0000 C   0  0  0  0  0  0  0  0  0  0  0  0
    5.1417  -24.7625    0.0000 C   0  0  0  0  0  0  0  0  0  0  0  0
    4.0417  -23.8500    0.0000 C   0  0  0  0  0  0  0  0  0  0  0  0
   10.2875  -18.1917    0.0000 C   0  0  0  0  0  0  0  0  0  0  0  0
   -0.2750  -20.4917    0.0000 C   0  0  0  0  0  0  0  0  0  0  0  0
    1.1542  -22.1542    0.0000 C   0  0  0  0  0  0  0  0  0  0  0  0
    0.4417  -18.4250    0.0000 C   0  0  0  0  0  0  0  0  0  0  0  0
    8.8375  -16.5417    0.0000 C   0  0  0  0  0  0  0  0  0  0  0  0
    9.5792  -20.2792    0.0000 C   0  0  0  0  0  0  0  0  0  0  0  0
  2  1  1  0
  3 22  1  0
  4  3  1  0
  5  2  1  0
  6  4  1  0
  7  1  1  0
  8 15  1  0
  9 12  2  0
 10 26  1  0
 11  7  1  0
 12 18  1  0
 13 19  1  0
 14 17  2  0
 15 20  2  0
 16  1  1  0
 17  5  1  0
 18  5  2  0
 19  6  2  0
 20  6  1  0
 21 10  1  0
 22 16  1  0
 23  2  2  0
 24  4  2  0
 25  7  1  0
 26 25  1  0
 27 21  1  0
 28 10  2  0
 29  8  1  0
 30  9  1  0
 31 15  1  0
 32 14  1  0
 33 13  1  0
 34 12  1  0
 35 27  1  0
 36 27  1  0
 37 35  1  0
 38 35  1  0
 39 30  1  0
 40 29  1  0
 41 31  1  0
 42 33  1  0
 43 32  1  0
 44 34  1  0
  3 11  1  0
  9 14  1  0
 13  8  2  0
M  END

> <chembl_id>
CHEMBL258053

> <chembl_pref_name>
None

$$$$

     RDKit          2D

 45 48  0  0  0  0  0  0  0  0999 V2000
    6.0875  -19.5042    0.0000 N   0  0  0  0  0  0  0  0  0  0  0  0
    6.8042  -19.9167    0.0000 C   0  0  0  0  0  0  0  0  0  0  0  0
    4.1292  -20.1125    0.0000 N   0  0  0  0  0  0  0  0  0  0  0  0
    3.4042  -19.7042    0.0000 C   0  0  0  0  0  0  0  0  0  0  0  0
    7.5167  -19.5000    0.0000 C   0  0  0  0  0  0  0  0  0  0  0  0
    2.6917  -20.1167    0.0000 C   0  0  0  0  0  0  0  0  0  0  0  0
    5.6792  -20.2167    0.0000 C   0  0  0  0  0  0  0  0  0  0  0  0
    5.2417  -23.2000    0.0000 C   0  0  0  0  0  0  0  0  0  0  0  0
    8.9500  -18.6625    0.0000 C   0  0  0  0  0  0  0  0  0  0  0  0
    1.2542  -20.9542    0.0000 C   0  0  0  0  0  0  0  0  0  0  0  0
    5.6667  -22.4875    0.0000 C   0  0  0  0  0  0  0  0  0  0  0  0
    4.7625  -19.8917    0.0000 C   0  0  0  0  0  0  0  0  0  0  0  0
    1.2542  -20.1250    0.0000 C   0  0  0  0  0  0  0  0  0  0  0  0
    8.2250  -18.2542    0.0000 C   0  0  0  0  0  0  0  0  0  0  0  0
    1.9667  -21.3667    0.0000 C   0  0  0  0  0  0  0  0  0  0  0  0
    8.9542  -19.4917    0.0000 C   0  0  0  0  0  0  0  0  0  0  0  0
    5.4042  -19.7292    0.0000 C   0  0  0  0  0  0  0  0  0  0  0  0
    8.2417  -19.9125    0.0000 C   0  0  0  0  0  0  0  0  0  0  0  0
    7.5125  -18.6750    0.0000 C   0  0  0  0  0  0  0  0  0  0  0  0
    2.6917  -20.9542    0.0000 C   0  0  0  0  0  0  0  0  0  0  0  0
    1.9667  -19.7042    0.0000 C   0  0  0  0  0  0  0  0  0  0  0  0
    4.5375  -19.3917    0.0000 C   0  0  0  0  0  0  0  0  0  0  0  0
    5.2542  -21.7667    0.0000 O   0  0  0  0  0  0  0  0  0  0  0  0
    6.8042  -20.7500    0.0000 O   0  0  0  0  0  0  0  0  0  0  0  0
    5.6542  -23.9167    0.0000 C   0  0  0  0  0  0  0  0  0  0  0  0
    5.6750  -21.0500    0.0000 C   0  0  0  0  0  0  0  0  0  0  0  0
    3.4042  -18.8750    0.0000 O   0  0  0  0  0  0  0  0  0  0  0  0
    6.4917  -22.4917    0.0000 O   0  0  0  0  0  0  0  0  0  0  0  0
    0.5292  -21.3667    0.0000 O   0  0  0  0  0  0  0  0  0  0  0  0
    9.6667  -18.2417    0.0000 O   0  0  0  0  0  0  0  0  0  0  0  0
    0.5375  -19.7125    0.0000 O   0  0  0  0  0  0  0  0  0  0  0  0
    9.6750  -19.9042    0.0000 O   0  0  0  0  0  0  0  0  0  0  0  0
    1.9667  -22.2000    0.0000 O   0  0  0  0  0  0  0  0  0  0  0  0
    8.2167  -17.4250    0.0000 O   0  0  0  0  0  0  0  0  0  0  0  0
    6.4792  -23.9250    0.0000 Cl  0  0  0  0  0  0  0  0  0  0  0  0
    4.4167  -23.1917    0.0000 C   0  0  0  0  0  0  0  0  0  0  0  0
    5.2417  -24.6292    0.0000 C   0  0  0  0  0  0  0  0  0  0  0  0
   -0.1833  -20.9542    0.0000 C   0  0  0  0  0  0  0  0  0  0  0  0
   10.3792  -18.6542    0.0000 C   0  0  0  0  0  0  0  0  0  0  0  0
    0.5375  -18.8792    0.0000 C   0  0  0  0  0  0  0  0  0  0  0  0
    8.9292  -17.0042    0.0000 C   0  0  0  0  0  0  0  0  0  0  0  0
    9.6792  -20.7375    0.0000 C   0  0  0  0  0  0  0  0  0  0  0  0
    1.2542  -22.6125    0.0000 C   0  0  0  0  0  0  0  0  0  0  0  0
    3.9917  -23.9042    0.0000 C   0  0  0  0  0  0  0  0  0  0  0  0
    4.4042  -24.6292    0.0000 C   0  0  0  0  0  0  0  0  0  0  0  0
  2  1  1  0
  3 22  1  0
  4  3  1  0
  5  2  1  0
  6  4  1  0
  7  1  1  0
  8 11  1  0
  9 14  1  0
 10 13  2  0
 11 23  1  0
 12  7  1  0
 13 21  1  0
 14 19  2  0
 15 20  2  0
 16 18  1  0
 17  1  1  0
 18  5  2  0
 19  5  1  0
 20  6  1  0
 21  6  2  0
 22 17  1  0
 23 26  1  0
 24  2  2  0
 25  8  1  0
 26  7  1  0
 27  4  2  0
 28 11  2  0
 29 10  1  0
 30  9  1  0
 31 13  1  0
 32 16  1  0
 33 15  1  0
 34 14  1  0
 35 25  1  0
 36  8  2  0
 37 25  2  0
 38 29  1  0
 39 30  1  0
 40 31  1  0
 41 34  1  0
 42 32  1  0
 43 33  1  0
 44 36  1  0
 45 44  2  0
  3 12  1  0
 16  9  2  0
 10 15  1  0
 37 45  1  0
M  END

> <chembl_id>
CHEMBL6203

> <chembl_pref_name>
None

$$$$

     RDKit          2D

 43 45  0  0  0  0  0  0  0  0999 V2000
    6.9042   -1.4750    0.0000 N   0  0  0  0  0  0  0  0  0  0  0  0
    7.6167   -1.8917    0.0000 C   0  0  0  0  0  0  0  0  0  0  0  0
    4.9417   -2.0792    0.0000 N   0  0  0  0  0  0  0  0  0  0  0  0
    4.2250   -1.6750    0.0000 C   0  0  0  0  0  0  0  0  0  0  0  0
    8.3375   -1.4667    0.0000 C   0  0  0  0  0  0  0  0  0  0  0  0
    3.5042   -2.0917    0.0000 C   0  0  0  0  0  0  0  0  0  0  0  0
    6.4917   -2.1917    0.0000 C   0  0  0  0  0  0  0  0  0  0  0  0
    2.0667   -2.9250    0.0000 C   0  0  0  0  0  0  0  0  0  0  0  0
    9.7667   -0.6292    0.0000 C   0  0  0  0  0  0  0  0  0  0  0  0
    5.5792   -1.8625    0.0000 C   0  0  0  0  0  0  0  0  0  0  0  0
    2.7875   -3.3417    0.0000 C   0  0  0  0  0  0  0  0  0  0  0  0
    9.7667   -1.4625    0.0000 C   0  0  0  0  0  0  0  0  0  0  0  0
    2.0667   -2.0917    0.0000 C   0  0  0  0  0  0  0  0  0  0  0  0
    9.0417   -0.2167    0.0000 C   0  0  0  0  0  0  0  0  0  0  0  0
    6.2250   -1.7000    0.0000 C   0  0  0  0  0  0  0  0  0  0  0  0
    9.0542   -1.8792    0.0000 C   0  0  0  0  0  0  0  0  0  0  0  0
    8.3292   -0.6417    0.0000 C   0  0  0  0  0  0  0  0  0  0  0  0
    3.5042   -2.9250    0.0000 C   0  0  0  0  0  0  0  0  0  0  0  0
    2.7875   -1.6792    0.0000 C   0  0  0  0  0  0  0  0  0  0  0  0
    5.3542   -1.3625    0.0000 C   0  0  0  0  0  0  0  0  0  0  0  0
    6.4792   -4.4542    0.0000 C   0  0  0  0  0  0  0  0  0  0  0  0
    7.6167   -2.7167    0.0000 O   0  0  0  0  0  0  0  0  0  0  0  0
    4.2167   -0.8417    0.0000 O   0  0  0  0  0  0  0  0  0  0  0  0
    6.4917   -3.0167    0.0000 C   0  0  0  0  0  0  0  0  0  0  0  0
    6.0667   -3.7375    0.0000 O   0  0  0  0  0  0  0  0  0  0  0  0
    7.3125   -4.4625    0.0000 O   0  0  0  0  0  0  0  0  0  0  0  0
    1.3500   -3.3417    0.0000 O   0  0  0  0  0  0  0  0  0  0  0  0
   10.4792   -0.2167    0.0000 O   0  0  0  0  0  0  0  0  0  0  0  0
    2.7875   -4.1667    0.0000 O   0  0  0  0  0  0  0  0  0  0  0  0
    9.0292    0.6083    0.0000 O   0  0  0  0  0  0  0  0  0  0  0  0
    1.3542   -1.6792    0.0000 O   0  0  0  0  0  0  0  0  0  0  0  0
   10.4917   -1.8792    0.0000 O   0  0  0  0  0  0  0  0  0  0  0  0
    6.0625   -5.1667    0.0000 C   0  0  0  0  0  0  0  0  0  0  0  0
    0.6375   -2.9250    0.0000 C   0  0  0  0  0  0  0  0  0  0  0  0
   11.2000   -0.6250    0.0000 C   0  0  0  0  0  0  0  0  0  0  0  0
    1.3542   -0.8542    0.0000 C   0  0  0  0  0  0  0  0  0  0  0  0
    9.7500    1.0250    0.0000 C   0  0  0  0  0  0  0  0  0  0  0  0
   10.4917   -2.7042    0.0000 C   0  0  0  0  0  0  0  0  0  0  0  0
    2.0667   -4.5792    0.0000 C   0  0  0  0  0  0  0  0  0  0  0  0
    6.4667   -5.8917    0.0000 C   0  0  0  0  0  0  0  0  0  0  0  0
    6.4542   -7.3167    0.0000 C   0  0  0  0  0  0  0  0  0  0  0  0
    6.0500   -6.6000    0.0000 C   0  0  0  0  0  0  0  0  0  0  0  0
    6.0417   -8.0292    0.0000 C   0  0  0  0  0  0  0  0  0  0  0  0
  2  1  1  0
  3 20  1  0
  4  3  1  0
  5  2  1  0
  6  4  1  0
  7  1  1  0
  8 13  2  0
  9 14  1  0
 10  7  1  0
 11 18  2  0
 12 16  1  0
 13 19  1  0
 14 17  2  0
 15  1  1  0
 16  5  2  0
 17  5  1  0
 18  6  1  0
 19  6  2  0
 20 15  1  0
 21 25  1  0
 22  2  2  0
 23  4  2  0
 24  7  1  0
 25 24  1  0
 26 21  2  0
 27  8  1  0
 28  9  1  0
 29 11  1  0
 30 14  1  0
 31 13  1  0
 32 12  1  0
 33 21  1  0
 34 27  1  0
 35 28  1  0
 36 31  1  0
 37 30  1  0
 38 32  1  0
 39 29  1  0
 40 33  1  0
 41 42  1  0
 42 40  1  0
 43 41  1  0
  3 10  1  0
 12  9  2  0
  8 11  1  0
M  END

> <chembl_id>
CHEMBL258253

> <chembl_pref_name>
None

$$$$

     RDKit          2D

 43 46  0  0  1  0  0  0  0  0999 V2000
   -0.2458   -3.1667    0.0000 N   0  0  0  0  0  0  0  0  0  0  0  0
   -0.7333   -2.8167    0.0000 C   0  0  0  0  0  0  0  0  0  0  0  0
   -1.2208   -3.1667    0.0000 N   0  0  0  0  0  0  0  0  0  0  0  0
    4.5125   -3.2667    0.0000 C   0  0  0  0  0  0  0  0  0  0  0  0
   -1.0333   -3.7417    0.0000 C   0  0  0  0  0  0  0  0  0  0  0  0
    5.0792   -3.0792    0.0000 N   0  0  0  0  0  0  0  0  0  0  0  0
    6.1667   -5.4542    0.0000 C   0  0  0  0  0  0  0  0  0  0  0  0
   -0.4333   -3.7417    0.0000 C   0  0  0  0  0  0  0  0  0  0  0  0
    6.7417   -5.2667    0.0000 C   0  0  0  0  0  0  0  0  0  0  0  0
    5.7250   -5.0542    0.0000 C   0  0  0  0  0  0  0  0  0  0  0  0
    4.3917   -3.8542    0.0000 O   0  0  0  0  0  0  0  0  0  0  0  0
    5.8542   -4.4667    0.0000 C   0  0  0  0  0  0  0  0  0  0  0  0
    4.0667   -2.8667    0.0000 C   0  0  0  0  0  0  0  0  0  0  0  0
    6.8667   -4.6792    0.0000 C   0  0  0  0  0  0  0  0  0  0  0  0
    5.5292   -3.4792    0.0000 C   0  0  0  0  0  0  0  0  0  0  0  0
    5.4042   -4.0667    0.0000 C   0  0  0  0  0  0  0  0  0  0  0  0
    3.4917   -3.0500    0.0000 C   0  0  0  0  0  0  0  0  0  0  0  0
    6.4167   -4.2792    0.0000 C   0  0  0  0  0  0  0  0  0  0  0  0
    7.1917   -5.6667    0.0000 O   0  0  0  0  0  0  0  0  0  0  0  0
    2.3542   -3.4167    0.0000 C   0  0  0  0  0  0  0  0  0  0  0  0
    0.3250   -2.9875    0.0000 C   0  0  0  0  0  0  0  0  0  0  0  0
    3.0500   -2.6500    0.0000 C   0  0  0  0  0  0  0  0  0  0  0  0
    3.3667   -3.6375    0.0000 C   0  0  0  0  0  0  0  0  0  0  0  0
    4.7792   -7.0042    0.0000 N   0  0  0  0  0  0  0  0  0  0  0  0
    2.8000   -3.8250    0.0000 C   0  0  0  0  0  0  0  0  0  0  0  0
    2.4792   -2.8375    0.0000 C   0  0  0  0  0  0  0  0  0  0  0  0
   -0.7333   -2.2167    0.0000 C   0  0  0  0  0  0  0  0  0  0  0  0
    7.7542   -5.4792    0.0000 C   0  0  0  0  0  0  0  0  0  0  0  0
    6.5417   -3.6917    0.0000 O   0  0  0  0  0  0  0  0  0  0  0  0
    6.0417   -6.0417    0.0000 C   0  0  0  0  0  0  0  0  0  0  0  0
    8.7750   -5.7000    0.0000 C   0  0  0  0  0  0  0  0  0  0  0  0
    6.1000   -3.2917    0.0000 C   0  0  0  0  0  0  0  0  0  0  0  0
    8.2042   -5.8875    0.0000 C   0  0  0  0  0  0  0  0  0  0  0  0
    5.3542   -6.8167    0.0000 C   0  0  0  0  0  0  0  0  0  0  0  0
    1.7875   -3.6042    0.0000 C   0  0  0  0  0  0  0  0  0  0  0  0
    0.7667   -3.3875    0.0000 C   0  0  0  0  0  0  0  0  0  0  0  0
    5.4750   -6.2292    0.0000 C   0  0  0  0  0  0  0  0  0  0  0  0
    8.8917   -5.1125    0.0000 C   0  0  0  0  0  0  0  0  0  0  0  0
    9.2167   -6.1042    0.0000 C   0  0  0  0  0  0  0  0  0  0  0  0
    1.3417   -3.2042    0.0000 C   0  0  0  0  0  0  0  0  0  0  0  0
    9.7875   -5.9167    0.0000 C   0  0  0  0  0  0  0  0  0  0  0  0
    9.4667   -4.9292    0.0000 C   0  0  0  0  0  0  0  0  0  0  0  0
    9.9167   -5.3292    0.0000 C   0  0  0  0  0  0  0  0  0  0  0  0
  2  1  1  0
  3  2  2  0
  4 13  1  0
  5  8  2  0
  6  4  1  0
  7 10  1  0
  8  1  1  0
  9 14  1  0
 10 12  2  0
 11  4  2  0
 12 16  1  0
 13 17  1  0
 14 18  2  0
 15  6  1  0
 15 16  1  6
 17 22  1  0
 18 12  1  0
 19  9  1  0
 20 35  1  0
 21  1  1  0
 22 26  2  0
 23 25  1  0
 24 34  1  0
 25 20  2  0
 26 20  1  0
 27  2  1  0
 28 19  1  0
 29 32  1  0
 30  7  1  0
 31 33  1  0
 32 15  1  0
 33 28  1  0
 34 37  1  0
 35 40  1  0
 36 21  1  0
 37 30  1  0
 38 31  1  0
 39 31  1  0
 40 36  1  0
 41 39  1  0
 42 38  1  0
 43 41  1  0
  5  3  1  0
 17 23  2  0
  9  7  2  0
 43 42  1  0
M  END

> <chembl_id>
CHEMBL263777

> <chembl_pref_name>
None

$$$$

     RDKit          2D

 42 44  0  0  0  0  0  0  0  0999 V2000
    3.9375   -4.6625    0.0000 N   0  0  0  0  0  0  0  0  0  0  0  0
    4.6542   -5.0792    0.0000 C   0  0  0  0  0  0  0  0  0  0  0  0
    1.9792   -5.2667    0.0000 N   0  0  0  0  0  0  0  0  0  0  0  0
    1.2542   -4.8625    0.0000 C   0  0  0  0  0  0  0  0  0  0  0  0
    5.3667   -4.6542    0.0000 C   0  0  0  0  0  0  0  0  0  0  0  0
    0.5417   -5.2792    0.0000 C   0  0  0  0  0  0  0  0  0  0  0  0
    3.5292   -5.3792    0.0000 C   0  0  0  0  0  0  0  0  0  0  0  0
   -0.8958   -6.1125    0.0000 C   0  0  0  0  0  0  0  0  0  0  0  0
    6.8000   -3.8167    0.0000 C   0  0  0  0  0  0  0  0  0  0  0  0
    2.6125   -5.0500    0.0000 C   0  0  0  0  0  0  0  0  0  0  0  0
   -0.1833   -6.5292    0.0000 C   0  0  0  0  0  0  0  0  0  0  0  0
    6.8042   -4.6500    0.0000 C   0  0  0  0  0  0  0  0  0  0  0  0
   -0.8958   -5.2792    0.0000 C   0  0  0  0  0  0  0  0  0  0  0  0
    6.0750   -3.4125    0.0000 C   0  0  0  0  0  0  0  0  0  0  0  0
    3.5167   -7.6417    0.0000 C   0  0  0  0  0  0  0  0  0  0  0  0
    3.2542   -4.8875    0.0000 C   0  0  0  0  0  0  0  0  0  0  0  0
    5.3625   -3.8292    0.0000 C   0  0  0  0  0  0  0  0  0  0  0  0
    6.0917   -5.0667    0.0000 C   0  0  0  0  0  0  0  0  0  0  0  0
   -0.1833   -4.8667    0.0000 C   0  0  0  0  0  0  0  0  0  0  0  0
    0.5417   -6.1125    0.0000 C   0  0  0  0  0  0  0  0  0  0  0  0
    2.3792   -4.5500    0.0000 C   0  0  0  0  0  0  0  0  0  0  0  0
    3.0917   -8.3542    0.0000 C   0  0  0  0  0  0  0  0  0  0  0  0
    3.1042   -6.9250    0.0000 O   0  0  0  0  0  0  0  0  0  0  0  0
    4.6542   -5.9042    0.0000 O   0  0  0  0  0  0  0  0  0  0  0  0
    3.5250   -6.2042    0.0000 C   0  0  0  0  0  0  0  0  0  0  0  0
    1.2542   -4.0292    0.0000 O   0  0  0  0  0  0  0  0  0  0  0  0
    4.3417   -7.6500    0.0000 O   0  0  0  0  0  0  0  0  0  0  0  0
    7.5167   -3.4042    0.0000 O   0  0  0  0  0  0  0  0  0  0  0  0
   -1.6208   -6.5292    0.0000 O   0  0  0  0  0  0  0  0  0  0  0  0
    6.0667   -2.5792    0.0000 O   0  0  0  0  0  0  0  0  0  0  0  0
   -1.6125   -4.8667    0.0000 O   0  0  0  0  0  0  0  0  0  0  0  0
    7.5250   -5.0667    0.0000 O   0  0  0  0  0  0  0  0  0  0  0  0
   -0.1833   -7.3542    0.0000 O   0  0  0  0  0  0  0  0  0  0  0  0
    3.5000   -9.0792    0.0000 C   0  0  0  0  0  0  0  0  0  0  0  0
    2.2667   -8.3542    0.0000 C   0  0  0  0  0  0  0  0  0  0  0  0
    2.6792   -9.0667    0.0000 C   0  0  0  0  0  0  0  0  0  0  0  0
    8.2292   -3.8125    0.0000 C   0  0  0  0  0  0  0  0  0  0  0  0
   -2.3333   -6.1125    0.0000 C   0  0  0  0  0  0  0  0  0  0  0  0
   -0.8958   -7.7667    0.0000 C   0  0  0  0  0  0  0  0  0  0  0  0
   -1.6125   -4.0417    0.0000 C   0  0  0  0  0  0  0  0  0  0  0  0
    6.7792   -2.1625    0.0000 C   0  0  0  0  0  0  0  0  0  0  0  0
    7.5292   -5.8917    0.0000 C   0  0  0  0  0  0  0  0  0  0  0  0
  2  1  1  0
  3 21  1  0
  4  3  1  0
  5  2  1  0
  6  4  1  0
  7  1  1  0
  8 11  1  0
  9 12  2  0
 10  7  1  0
 11 20  2  0
 12 18  1  0
 13 19  1  0
 14 17  2  0
 15 23  1  0
 16  1  1  0
 17  5  1  0
 18  5  2  0
 19  6  2  0
 20  6  1  0
 21 16  1  0
 22 15  1  0
 23 25  1  0
 24  2  2  0
 25  7  1  0
 26  4  2  0
 27 15  2  0
 28  9  1  0
 29  8  1  0
 30 14  1  0
 31 13  1  0
 32 12  1  0
 33 11  1  0
 34 22  1  0
 35 22  1  0
 36 22  1  0
 37 28  1  0
 38 29  1  0
 39 33  1  0
 40 31  1  0
 41 30  1  0
 42 32  1  0
 10  3  1  0
 14  9  1  0
 13  8  2  0
M  END

> <chembl_id>
CHEMBL268596

> <chembl_pref_name>
None

$$$$

     RDKit          2D

 25 27  0  0  0  0  0  0  0  0999 V2000
    2.5956   -2.7031    0.0000 C   0  0  0  0  0  0  0  0  0  0  0  0
    2.5973   -1.5031    0.0000 O   0  0  0  0  0  0  0  0  0  0  0  0
    1.2990   -0.7500    0.0000 C   0  0  0  0  0  0  0  0  0  0  0  0
    1.2990    0.7500    0.0000 C   0  0  0  0  0  0  0  0  0  0  0  0
    0.0000    1.5000    0.0000 C   0  0  0  0  0  0  0  0  0  0  0  0
   -1.2990    0.7500    0.0000 C   0  0  0  0  0  0  0  0  0  0  0  0
   -1.2990   -0.7500    0.0000 C   0  0  0  0  0  0  0  0  0  0  0  0
    0.0000   -1.5000    0.0000 C   0  0  0  0  0  0  0  0  0  0  0  0
   -2.7248   -1.2135    0.0000 C   0  0  0  0  0  0  0  0  0  0  0  0
   -3.1904   -2.6376    0.0000 C   0  0  0  0  0  0  0  0  0  0  0  0
   -4.6588   -2.9478    0.0000 C   0  0  0  0  0  0  0  0  0  0  0  0
   -5.0318   -4.0884    0.0000 O   0  0  0  0  0  0  0  0  0  0  0  0
   -5.4604   -2.0548    0.0000 O   0  0  0  0  0  0  0  0  0  0  0  0
   -3.6065    0.0000    0.0000 C   0  0  0  0  0  0  0  0  0  0  0  0
   -4.8065    0.0000    0.0000 C   0  0  0  0  0  0  0  0  0  0  0  0
   -2.7248    1.2135    0.0000 N   0  0  0  0  0  0  0  0  0  0  0  0
   -3.1905    2.6376    0.0000 C   0  0  0  0  0  0  0  0  0  0  0  0
   -2.3889    3.5306    0.0000 O   0  0  0  0  0  0  0  0  0  0  0  0
   -4.6589    2.9478    0.0000 C   0  0  0  0  0  0  0  0  0  0  0  0
   -5.1272    4.3728    0.0000 C   0  0  0  0  0  0  0  0  0  0  0  0
   -6.5954    4.6799    0.0000 C   0  0  0  0  0  0  0  0  0  0  0  0
   -7.5954    3.5619    0.0000 C   0  0  0  0  0  0  0  0  0  0  0  0
   -8.7700    3.8075    0.0000 Cl  0  0  0  0  0  0  0  0  0  0  0  0
   -7.1272    2.1368    0.0000 C   0  0  0  0  0  0  0  0  0  0  0  0
   -5.6590    1.8298    0.0000 C   0  0  0  0  0  0  0  0  0  0  0  0
  1  2  1  0
  2  3  1  0
  3  4  2  0
  4  5  1  0
  5  6  2  0
  6  7  1  0
  7  8  2  0
  8  3  1  0
  7  9  1  0
  9 10  1  0
 10 11  1  0
 11 12  2  0
 11 13  1  0
  9 14  2  0
 14 15  1  0
 14 16  1  0
 16  6  1  0
 16 17  1  0
 17 18  2  0
 17 19  1  0
 19 20  2  0
 20 21  1  0
 21 22  2  0
 22 23  1  0
 22 24  1  0
 24 25  2  0
 25 19  1  0
M  END

> <chembl_id>
CHEMBL6

> <chembl_pref_name>
INDOMETHACIN

$$$$

     RDKit          2D

 21 23  0  0  0  0  0  0  0  0999 V2000
    1.9417   -1.5917    0.0000 C   0  0  0  0  0  0  0  0  0  0  0  0
    2.5500   -1.0375    0.0000 N   0  0  0  0  0  0  0  0  0  0  0  0
    3.7792    0.0583    0.0000 N   0  0  0  0  0  0  0  0  0  0  0  0
    1.1542   -1.3375    0.0000 C   0  0  0  0  0  0  0  0  0  0  0  0
    0.5500   -1.8875    0.0000 N   0  0  0  0  0  0  0  0  0  0  0  0
    2.1125   -2.3917    0.0000 O   0  0  0  0  0  0  0  0  0  0  0  0
    2.3792   -0.2375    0.0000 C   0  0  0  0  0  0  0  0  0  0  0  0
    3.3375   -1.3000    0.0000 C   0  0  0  0  0  0  0  0  0  0  0  0
    6.7417   -0.1542    0.0000 N   0  0  0  0  0  0  0  0  0  0  0  0
    4.3917    0.6083    0.0000 C   0  0  0  0  0  0  0  0  0  0  0  0
    3.9500   -0.7500    0.0000 C   0  0  0  0  0  0  0  0  0  0  0  0
    2.9917    0.3208    0.0000 C   0  0  0  0  0  0  0  0  0  0  0  0
    5.1792    0.3583    0.0000 C   0  0  0  0  0  0  0  0  0  0  0  0
   -0.2333   -1.6375    0.0000 C   0  0  0  0  0  0  0  0  0  0  0  0
    6.1250   -0.7042    0.0000 C   0  0  0  0  0  0  0  0  0  0  0  0
    6.5667    0.6500    0.0000 C   0  0  0  0  0  0  0  0  0  0  0  0
    0.9875   -0.5292    0.0000 C   0  0  0  0  0  0  0  0  0  0  0  0
    5.3417   -0.4542    0.0000 C   0  0  0  0  0  0  0  0  0  0  0  0
    5.7875    0.9083    0.0000 C   0  0  0  0  0  0  0  0  0  0  0  0
   -0.4083   -0.8292    0.0000 C   0  0  0  0  0  0  0  0  0  0  0  0
    0.2042   -0.2750    0.0000 C   0  0  0  0  0  0  0  0  0  0  0  0
  2  1  1  0
  3 11  1  0
  4  1  1  0
  5  4  1  0
  6  1  2  0
  7  2  1  0
  8  2  1  0
  9 16  1  0
 10  3  1  0
 11  8  1  0
 12  7  1  0
 13 10  1  0
 14  5  1  0
 15 18  1  0
 16 19  2  0
 17  4  1  0
 18 13  2  0
 19 13  1  0
 20 21  1  0
 21 17  1  0
 12  3  1  0
 20 14  1  0
 15  9  2  0
M  END

> <chembl_id>
CHEMBL266220

> <chembl_pref_name>
None

$$$$

     RDKit          2D

 21 23  0  0  0  0  0  0  0  0999 V2000
    1.2542   -1.5625    0.0000 C   0  0  0  0  0  0  0  0  0  0  0  0
    1.8667   -1.0042    0.0000 N   0  0  0  0  0  0  0  0  0  0  0  0
    3.0917    0.0875    0.0000 N   0  0  0  0  0  0  0  0  0  0  0  0
    0.4667   -1.3042    0.0000 C   0  0  0  0  0  0  0  0  0  0  0  0
   -0.1333   -1.8542    0.0000 N   0  0  0  0  0  0  0  0  0  0  0  0
    1.4292   -2.3667    0.0000 O   0  0  0  0  0  0  0  0  0  0  0  0
    1.6917   -0.2042    0.0000 C   0  0  0  0  0  0  0  0  0  0  0  0
    2.6542   -1.2667    0.0000 C   0  0  0  0  0  0  0  0  0  0  0  0
    4.6542   -0.4250    0.0000 N   0  0  0  0  0  0  0  0  0  0  0  0
    3.7125    0.6375    0.0000 C   0  0  0  0  0  0  0  0  0  0  0  0
    3.2667   -0.7167    0.0000 C   0  0  0  0  0  0  0  0  0  0  0  0
    2.3125    0.3458    0.0000 C   0  0  0  0  0  0  0  0  0  0  0  0
    4.4917    0.3833    0.0000 C   0  0  0  0  0  0  0  0  0  0  0  0
   -0.9208   -1.6042    0.0000 C   0  0  0  0  0  0  0  0  0  0  0  0
    5.4417   -0.6792    0.0000 C   0  0  0  0  0  0  0  0  0  0  0  0
    0.3042   -0.5000    0.0000 C   0  0  0  0  0  0  0  0  0  0  0  0
    5.1042    0.9333    0.0000 C   0  0  0  0  0  0  0  0  0  0  0  0
   -1.0958   -0.8000    0.0000 C   0  0  0  0  0  0  0  0  0  0  0  0
    6.0542   -0.1292    0.0000 C   0  0  0  0  0  0  0  0  0  0  0  0
   -0.4833   -0.2417    0.0000 C   0  0  0  0  0  0  0  0  0  0  0  0
    5.8875    0.6833    0.0000 C   0  0  0  0  0  0  0  0  0  0  0  0
  2  1  1  0
  3 11  1  0
  4  1  1  0
  5  4  1  0
  6  1  2  0
  7  2  1  0
  8  2  1  0
  9 13  2  0
 10  3  1  0
 11  8  1  0
 12  7  1  0
 13 10  1  0
 14  5  1  0
 15  9  1  0
 16  4  1  0
 17 13  1  0
 18 20  1  0
 19 21  1  0
 20 16  1  0
 21 17  2  0
 12  3  1  0
 18 14  1  0
 15 19  2  0
M  END

> <chembl_id>
CHEMBL6233

> <chembl_pref_name>
None

$$$$

     RDKit          2D

 20 22  0  0  1  0  0  0  0  0999 V2000
    3.7625   -3.5667    0.0000 C   0  0  0  0  0  0  0  0  0  0  0  0
    4.3750   -3.0167    0.0000 N   0  0  0  0  0  0  0  0  0  0  0  0
    5.6042   -1.9167    0.0000 N   0  0  0  0  0  0  0  0  0  0  0  0
    2.9792   -3.3167    0.0000 C   0  0  0  0  0  0  0  0  0  0  0  0
    2.3125   -3.8042    0.0000 N   0  0  0  0  0  0  0  0  0  0  0  0
    3.9375   -4.3667    0.0000 O   0  0  0  0  0  0  0  0  0  0  0  0
    5.1625   -3.2792    0.0000 C   0  0  0  0  0  0  0  0  0  0  0  0
    4.2042   -2.2167    0.0000 C   0  0  0  0  0  0  0  0  0  0  0  0
    7.9500   -2.6792    0.0000 N   0  0  0  0  0  0  0  0  0  0  0  0
    6.2250   -1.3667    0.0000 C   0  0  0  0  0  0  0  0  0  0  0  0
    7.0042   -1.6167    0.0000 C   0  0  0  0  0  0  0  0  0  0  0  0
    5.7750   -2.7292    0.0000 C   0  0  0  0  0  0  0  0  0  0  0  0
    4.8250   -1.6542    0.0000 C   0  0  0  0  0  0  0  0  0  0  0  0
    7.1667   -2.4292    0.0000 C   0  0  0  0  0  0  0  0  0  0  0  0
    1.6500   -3.3167    0.0000 C   0  0  0  0  0  0  0  0  0  0  0  0
    8.5667   -2.1292    0.0000 C   0  0  0  0  0  0  0  0  0  0  0  0
    7.6125   -1.0667    0.0000 C   0  0  0  0  0  0  0  0  0  0  0  0
    2.7250   -2.5292    0.0000 C   0  0  0  0  0  0  0  0  0  0  0  0
    8.4000   -1.3292    0.0000 C   0  0  0  0  0  0  0  0  0  0  0  0
    1.9000   -2.5292    0.0000 C   0  0  0  0  0  0  0  0  0  0  0  0
  2  1  1  0
  3 13  1  0
  4  1  1  1
  5  4  1  0
  6  1  2  0
  7  2  1  0
  8  2  1  0
  9 14  1  0
 10  3  1  0
 11 10  1  0
 12  7  1  0
 13  8  1  0
 14 11  2  0
 15  5  1  0
 16 19  1  0
 17 11  1  0
 18  4  1  0
 19 17  2  0
 20 18  1  0
 15 20  1  0
 12  3  1  0
  9 16  2  0
M  END

> <chembl_id>
CHEMBL6234

> <chembl_pref_name>
None

$$$$

     RDKit          2D

 20 22  0  0  1  0  0  0  0  0999 V2000
    3.7667   -3.5625    0.0000 C   0  0  0  0  0  0  0  0  0  0  0  0
    4.3750   -3.0125    0.0000 N   0  0  0  0  0  0  0  0  0  0  0  0
    5.6042   -1.9125    0.0000 N   0  0  0  0  0  0  0  0  0  0  0  0
    2.9792   -3.3125    0.0000 C   0  0  0  0  0  0  0  0  0  0  0  0
    2.3125   -3.8000    0.0000 N   0  0  0  0  0  0  0  0  0  0  0  0
    3.9375   -4.3667    0.0000 O   0  0  0  0  0  0  0  0  0  0  0  0
    5.1625   -3.2750    0.0000 C   0  0  0  0  0  0  0  0  0  0  0  0
    4.2042   -2.2125    0.0000 C   0  0  0  0  0  0  0  0  0  0  0  0
    7.1667   -2.4250    0.0000 N   0  0  0  0  0  0  0  0  0  0  0  0
    6.2250   -1.3625    0.0000 C   0  0  0  0  0  0  0  0  0  0  0  0
    4.8250   -1.6542    0.0000 C   0  0  0  0  0  0  0  0  0  0  0  0
    5.7750   -2.7250    0.0000 C   0  0  0  0  0  0  0  0  0  0  0  0
    7.0042   -1.6167    0.0000 C   0  0  0  0  0  0  0  0  0  0  0  0
    1.6500   -3.3125    0.0000 C   0  0  0  0  0  0  0  0  0  0  0  0
    7.9500   -2.6792    0.0000 C   0  0  0  0  0  0  0  0  0  0  0  0
    2.7250   -2.5250    0.0000 C   0  0  0  0  0  0  0  0  0  0  0  0
    7.6125   -1.0667    0.0000 C   0  0  0  0  0  0  0  0  0  0  0  0
    1.9000   -2.5250    0.0000 C   0  0  0  0  0  0  0  0  0  0  0  0
    8.5667   -2.1292    0.0000 C   0  0  0  0  0  0  0  0  0  0  0  0
    8.4000   -1.3250    0.0000 C   0  0  0  0  0  0  0  0  0  0  0  0
  2  1  1  0
  3 11  1  0
  4  1  1  1
  5  4  1  0
  6  1  2  0
  7  2  1  0
  8  2  1  0
  9 13  2  0
 10  3  1  0
 11  8  1  0
 12  7  1  0
 13 10  1  0
 14  5  1  0
 15  9  1  0
 16  4  1  0
 17 13  1  0
 18 16  1  0
 19 20  1  0
 20 17  2  0
 14 18  1  0
 12  3  1  0
 15 19  2  0
M  END

> <chembl_id>
CHEMBL268598

> <chembl_pref_name>
None

$$$$

     RDKit          2D

 43 45  0  0  0  0  0  0  0  0999 V2000
    6.0875  -19.5042    0.0000 N   0  0  0  0  0  0  0  0  0  0  0  0
    6.8042  -19.9167    0.0000 C   0  0  0  0  0  0  0  0  0  0  0  0
    4.1292  -20.1125    0.0000 N   0  0  0  0  0  0  0  0  0  0  0  0
    3.4042  -19.7042    0.0000 C   0  0  0  0  0  0  0  0  0  0  0  0
    7.5167  -19.5000    0.0000 C   0  0  0  0  0  0  0  0  0  0  0  0
    2.6917  -20.1167    0.0000 C   0  0  0  0  0  0  0  0  0  0  0  0
    5.6792  -20.2167    0.0000 C   0  0  0  0  0  0  0  0  0  0  0  0
    1.2542  -20.9542    0.0000 C   0  0  0  0  0  0  0  0  0  0  0  0
    8.9500  -18.6625    0.0000 C   0  0  0  0  0  0  0  0  0  0  0  0
    4.7625  -19.8917    0.0000 C   0  0  0  0  0  0  0  0  0  0  0  0
    1.9667  -21.3667    0.0000 C   0  0  0  0  0  0  0  0  0  0  0  0
    8.9542  -19.4917    0.0000 C   0  0  0  0  0  0  0  0  0  0  0  0
    1.2542  -20.1250    0.0000 C   0  0  0  0  0  0  0  0  0  0  0  0
    8.2250  -18.2542    0.0000 C   0  0  0  0  0  0  0  0  0  0  0  0
    5.4042  -19.7292    0.0000 C   0  0  0  0  0  0  0  0  0  0  0  0
    8.2417  -19.9125    0.0000 C   0  0  0  0  0  0  0  0  0  0  0  0
    7.5125  -18.6750    0.0000 C   0  0  0  0  0  0  0  0  0  0  0  0
    2.6917  -20.9542    0.0000 C   0  0  0  0  0  0  0  0  0  0  0  0
    1.9667  -19.7042    0.0000 C   0  0  0  0  0  0  0  0  0  0  0  0
    4.5375  -19.3917    0.0000 C   0  0  0  0  0  0  0  0  0  0  0  0
    5.6667  -22.4875    0.0000 C   0  0  0  0  0  0  0  0  0  0  0  0
    6.8042  -20.7500    0.0000 O   0  0  0  0  0  0  0  0  0  0  0  0
    3.4042  -18.8750    0.0000 O   0  0  0  0  0  0  0  0  0  0  0  0
    5.6750  -21.0500    0.0000 C   0  0  0  0  0  0  0  0  0  0  0  0
    5.2542  -21.7667    0.0000 O   0  0  0  0  0  0  0  0  0  0  0  0
    6.4917  -22.4917    0.0000 O   0  0  0  0  0  0  0  0  0  0  0  0
    5.2417  -23.2000    0.0000 C   0  0  0  0  0  0  0  0  0  0  0  0
    5.6542  -23.9167    0.0000 C   0  0  0  0  0  0  0  0  0  0  0  0
    0.5292  -21.3667    0.0000 O   0  0  0  0  0  0  0  0  0  0  0  0
    9.6667  -18.2417    0.0000 O   0  0  0  0  0  0  0  0  0  0  0  0
    0.5375  -19.7125    0.0000 O   0  0  0  0  0  0  0  0  0  0  0  0
    9.6750  -19.9042    0.0000 O   0  0  0  0  0  0  0  0  0  0  0  0
    1.9667  -22.2000    0.0000 O   0  0  0  0  0  0  0  0  0  0  0  0
    8.2167  -17.4250    0.0000 O   0  0  0  0  0  0  0  0  0  0  0  0
    5.2292  -24.6375    0.0000 C   0  0  0  0  0  0  0  0  0  0  0  0
    6.4792  -23.9250    0.0000 C   0  0  0  0  0  0  0  0  0  0  0  0
    6.0667  -24.6292    0.0000 C   0  0  0  0  0  0  0  0  0  0  0  0
   -0.1833  -20.9542    0.0000 C   0  0  0  0  0  0  0  0  0  0  0  0
   10.3792  -18.6542    0.0000 C   0  0  0  0  0  0  0  0  0  0  0  0
    0.5375  -18.8792    0.0000 C   0  0  0  0  0  0  0  0  0  0  0  0
    8.9292  -17.0042    0.0000 C   0  0  0  0  0  0  0  0  0  0  0  0
    9.6792  -20.7375    0.0000 C   0  0  0  0  0  0  0  0  0  0  0  0
    1.2542  -22.6125    0.0000 C   0  0  0  0  0  0  0  0  0  0  0  0
  2  1  1  0
  3 20  1  0
  4  3  1  0
  5  2  1  0
  6  4  1  0
  7  1  1  0
  8 13  2  0
  9 14  1  0
 10  7  1  0
 11 18  2  0
 12 16  1  0
 13 19  1  0
 14 17  2  0
 15  1  1  0
 16  5  2  0
 17  5  1  0
 18  6  1  0
 19  6  2  0
 20 15  1  0
 21 25  1  0
 22  2  2  0
 23  4  2  0
 24  7  1  0
 25 24  1  0
 26 21  2  0
 27 21  1  0
 28 27  1  0
 29  8  1  0
 30  9  1  0
 31 13  1  0
 32 12  1  0
 33 11  1  0
 34 14  1  0
 35 28  1  0
 36 28  1  0
 37 28  1  0
 38 29  1  0
 39 30  1  0
 40 31  1  0
 41 34  1  0
 42 32  1  0
 43 33  1  0
  3 10  1  0
 12  9  2  0
 11  8  1  0
M  END

> <chembl_id>
CHEMBL6232

> <chembl_pref_name>
None

$$$$

     RDKit          2D

 24 28  0  0  1  0  0  0  0  0999 V2000
    4.3125   -4.9375    0.0000 C   0  0  0  0  0  0  0  0  0  0  0  0
    5.8792   -4.0417    0.0000 C   0  0  0  0  0  0  0  0  0  0  0  0
    4.3125   -5.5375    0.0000 C   0  0  0  0  0  0  0  0  0  0  0  0
    4.8292   -4.6375    0.0000 C   0  0  0  0  0  0  0  0  0  0  0  0
    5.8667   -4.6417    0.0000 C   0  0  0  0  0  0  0  0  0  0  0  0
    5.3500   -4.9417    0.0000 C   0  0  0  0  0  0  0  0  0  0  0  0
    6.4500   -3.8667    0.0000 C   0  0  0  0  0  0  0  0  0  0  0  0
    4.8250   -5.8375    0.0000 C   0  0  0  0  0  0  0  0  0  0  0  0
    5.3542   -3.7417    0.0000 C   0  0  0  0  0  0  0  0  0  0  0  0
    5.3417   -5.5417    0.0000 C   0  0  0  0  0  0  0  0  0  0  0  0
    4.8292   -4.0375    0.0000 C   0  0  0  0  0  0  0  0  0  0  0  0
    3.7917   -4.6375    0.0000 C   0  0  0  0  0  0  0  0  0  0  0  0
    6.4417   -4.8375    0.0000 C   0  0  0  0  0  0  0  0  0  0  0  0
    6.7417   -3.3417    0.0000 O   0  0  0  0  0  0  0  0  0  0  0  0
    7.3417   -3.3375    0.0000 C   0  0  0  0  0  0  0  0  0  0  0  0
    7.8625   -3.6292    0.0000 C   0  0  0  0  0  0  0  0  0  0  0  0
    7.8542   -3.0292    0.0000 C   0  0  0  0  0  0  0  0  0  0  0  0
    3.7917   -5.8375    0.0000 C   0  0  0  0  0  0  0  0  0  0  0  0
    6.8000   -4.3542    0.0000 C   0  0  0  0  0  0  0  0  0  0  0  0
    3.2792   -4.9375    0.0000 C   0  0  0  0  0  0  0  0  0  0  0  0
    3.2792   -5.5375    0.0000 C   0  0  0  0  0  0  0  0  0  0  0  0
    4.3042   -4.3375    0.0000 C   0  0  0  0  0  0  0  0  0  0  0  0
    5.8750   -3.4417    0.0000 C   0  0  0  0  0  0  0  0  0  0  0  0
    2.7542   -5.8292    0.0000 O   0  0  0  0  0  0  0  0  0  0  0  0
  2  9  1  0
  3  1  1  0
  4  1  1  0
  5  6  1  0
  6  4  1  0
  7  2  1  0
  8  3  2  0
  9 11  1  0
 10  6  1  0
 11  4  1  0
 12  1  1  0
 13  5  1  0
  7 14  1  1
 15 14  1  0
 16 15  1  0
 17 15  1  0
 18  3  1  0
 19 13  1  0
 20 12  1  0
 21 20  1  0
  1 22  1  1
  2 23  1  1
 21 24  1  1
 21 18  1  0
 10  8  1  0
  5  2  1  0
  7 19  1  0
 16 17  1  0
M  END

> <chembl_id>
CHEMBL6253

> <chembl_pref_name>
None

$$$$

     RDKit          2D

 27 32  0  0  1  0  0  0  0  0999 V2000
    4.3750   -4.9667    0.0000 C   0  0  0  0  0  0  0  0  0  0  0  0
    5.9417   -4.0792    0.0000 C   0  0  0  0  0  0  0  0  0  0  0  0
    4.3750   -5.5667    0.0000 C   0  0  0  0  0  0  0  0  0  0  0  0
    4.8917   -4.6667    0.0000 C   0  0  0  0  0  0  0  0  0  0  0  0
    5.9292   -4.6792    0.0000 C   0  0  0  0  0  0  0  0  0  0  0  0
    5.4125   -4.9750    0.0000 C   0  0  0  0  0  0  0  0  0  0  0  0
    3.8542   -5.8667    0.0000 C   0  0  0  0  0  0  0  0  0  0  0  0
    3.8542   -4.6667    0.0000 C   0  0  0  0  0  0  0  0  0  0  0  0
    3.3417   -5.5667    0.0000 C   0  0  0  0  0  0  0  0  0  0  0  0
    6.5125   -3.9000    0.0000 C   0  0  0  0  0  0  0  0  0  0  0  0
    3.3417   -4.9667    0.0000 C   0  0  0  0  0  0  0  0  0  0  0  0
    5.4167   -3.7750    0.0000 C   0  0  0  0  0  0  0  0  0  0  0  0
    4.8917   -4.0667    0.0000 C   0  0  0  0  0  0  0  0  0  0  0  0
    5.4042   -5.5750    0.0000 C   0  0  0  0  0  0  0  0  0  0  0  0
    6.5042   -4.8667    0.0000 C   0  0  0  0  0  0  0  0  0  0  0  0
    6.8042   -3.3792    0.0000 O   0  0  0  0  0  0  0  0  0  0  0  0
    7.4042   -3.3667    0.0000 C   0  0  0  0  0  0  0  0  0  0  0  0
    4.8875   -5.8667    0.0000 C   0  0  0  0  0  0  0  0  0  0  0  0
    7.9250   -3.6625    0.0000 C   0  0  0  0  0  0  0  0  0  0  0  0
    7.9167   -3.0625    0.0000 C   0  0  0  0  0  0  0  0  0  0  0  0
    3.8417   -4.0667    0.0000 O   0  0  0  0  0  0  0  0  0  0  0  0
    6.8625   -4.3792    0.0000 C   0  0  0  0  0  0  0  0  0  0  0  0
    2.8167   -5.8667    0.0000 O   0  0  0  0  0  0  0  0  0  0  0  0
    4.3667   -4.3667    0.0000 C   0  0  0  0  0  0  0  0  0  0  0  0
    3.3375   -4.3667    0.0000 C   0  0  0  0  0  0  0  0  0  0  0  0
    5.9375   -3.4792    0.0000 C   0  0  0  0  0  0  0  0  0  0  0  0
    2.3417   -4.9702    0.0000 H   0  0  0  0  0  0  0  0  0  0  0  0
  2 12  1  0
  3  1  1  0
  4  1  1  0
  5  6  1  0
  6  4  1  0
  7  3  2  0
  1  8  1  6
  9 11  1  0
 10  2  1  0
 11  8  1  0
 12 13  1  0
 13  4  1  0
 14  6  1  0
 15  5  1  0
 10 16  1  1
 17 16  1  0
 18  3  1  0
 19 17  1  0
 20 17  1  0
 21 24  1  0
 22 15  1  0
 23  9  2  0
  1 24  1  0
 25 21  1  0
  2 26  1  1
 14 18  1  0
 11 25  1  0
  9  7  1  0
  2  5  1  0
 10 22  1  0
 19 20  1  0
 11 27  1  6
M  END

> <chembl_id>
CHEMBL414006

> <chembl_pref_name>
None

$$$$

     RDKit          2D

 41 43  0  0  0  0  0  0  0  0999 V2000
    6.0875  -20.5167    0.0000 N   0  0  0  0  0  0  0  0  0  0  0  0
    1.2542  -21.9667    0.0000 C   0  0  0  0  0  0  0  0  0  0  0  0
    8.9500  -19.6750    0.0000 C   0  0  0  0  0  0  0  0  0  0  0  0
    5.6792  -21.2292    0.0000 C   0  0  0  0  0  0  0  0  0  0  0  0
    4.1292  -21.1250    0.0000 N   0  0  0  0  0  0  0  0  0  0  0  0
    1.9667  -22.3792    0.0000 C   0  0  0  0  0  0  0  0  0  0  0  0
    8.9542  -20.5042    0.0000 C   0  0  0  0  0  0  0  0  0  0  0  0
    1.2542  -21.1375    0.0000 C   0  0  0  0  0  0  0  0  0  0  0  0
    8.2250  -19.2667    0.0000 C   0  0  0  0  0  0  0  0  0  0  0  0
    5.7167  -23.4167    0.0000 C   0  0  0  0  0  0  0  0  0  0  0  0
    7.5167  -20.5125    0.0000 C   0  0  0  0  0  0  0  0  0  0  0  0
    2.6917  -21.1292    0.0000 C   0  0  0  0  0  0  0  0  0  0  0  0
    6.8042  -20.9292    0.0000 C   0  0  0  0  0  0  0  0  0  0  0  0
    4.7625  -20.9042    0.0000 C   0  0  0  0  0  0  0  0  0  0  0  0
    5.4375  -22.6417    0.0000 O   0  0  0  0  0  0  0  0  0  0  0  0
    8.2417  -20.9250    0.0000 C   0  0  0  0  0  0  0  0  0  0  0  0
    7.5125  -19.6875    0.0000 C   0  0  0  0  0  0  0  0  0  0  0  0
    1.9667  -20.7167    0.0000 C   0  0  0  0  0  0  0  0  0  0  0  0
    2.6917  -21.9667    0.0000 C   0  0  0  0  0  0  0  0  0  0  0  0
    5.4042  -20.7417    0.0000 C   0  0  0  0  0  0  0  0  0  0  0  0
    5.9625  -22.0042    0.0000 C   0  0  0  0  0  0  0  0  0  0  0  0
    3.4042  -20.7167    0.0000 C   0  0  0  0  0  0  0  0  0  0  0  0
    6.5292  -23.5542    0.0000 O   0  0  0  0  0  0  0  0  0  0  0  0
    4.5375  -20.4042    0.0000 C   0  0  0  0  0  0  0  0  0  0  0  0
    5.1917  -24.0500    0.0000 C   0  0  0  0  0  0  0  0  0  0  0  0
    9.6667  -19.2542    0.0000 O   0  0  0  0  0  0  0  0  0  0  0  0
    0.5292  -22.3792    0.0000 O   0  0  0  0  0  0  0  0  0  0  0  0
    8.2167  -18.4375    0.0000 O   0  0  0  0  0  0  0  0  0  0  0  0
    0.5375  -20.7250    0.0000 O   0  0  0  0  0  0  0  0  0  0  0  0
    9.6750  -20.9167    0.0000 O   0  0  0  0  0  0  0  0  0  0  0  0
    1.9667  -23.2125    0.0000 O   0  0  0  0  0  0  0  0  0  0  0  0
    4.3792  -23.9125    0.0000 C   0  0  0  0  0  0  0  0  0  0  0  0
    5.4792  -24.8250    0.0000 C   0  0  0  0  0  0  0  0  0  0  0  0
   -0.1833  -21.9667    0.0000 C   0  0  0  0  0  0  0  0  0  0  0  0
   10.3792  -19.6667    0.0000 C   0  0  0  0  0  0  0  0  0  0  0  0
    9.6792  -21.7500    0.0000 C   0  0  0  0  0  0  0  0  0  0  0  0
    1.2542  -23.6250    0.0000 C   0  0  0  0  0  0  0  0  0  0  0  0
    0.5375  -19.8917    0.0000 C   0  0  0  0  0  0  0  0  0  0  0  0
    8.9292  -18.0167    0.0000 C   0  0  0  0  0  0  0  0  0  0  0  0
    3.8542  -24.5417    0.0000 C   0  0  0  0  0  0  0  0  0  0  0  0
    4.9542  -25.4542    0.0000 C   0  0  0  0  0  0  0  0  0  0  0  0
  2  6  1  0
  3  9  1  0
  4  1  1  0
  5 24  1  0
  6 19  2  0
  7 16  1  0
  8 18  1  0
  9 17  2  0
 10 15  1  0
 11 13  1  0
 12 22  1  0
 13  1  1  0
 14  4  1  0
 15 21  1  0
 16 11  2  0
 17 11  1  0
 18 12  2  0
 19 12  1  0
 20  1  1  0
 21  4  1  0
 22  5  1  0
 23 10  2  0
 24 20  1  0
 25 10  1  0
 26  3  1  0
 27  2  1  0
 28  9  1  0
 29  8  1  0
 30  7  1  0
 31  6  1  0
 32 25  1  0
 33 25  1  0
 34 27  1  0
 35 26  1  0
 36 30  1  0
 37 31  1  0
 38 29  1  0
 39 28  1  0
 40 32  1  0
 41 33  1  0
  5 14  1  0
  7  3  2  0
  8  2  2  0
M  END

> <chembl_id>
CHEMBL414007

> <chembl_pref_name>
None

$$$$

     RDKit          2D

 30 32  0  0  0  0  0  0  0  0999 V2000
    6.2125  -18.6417    0.0000 C   0  0  0  0  0  0  0  0  0  0  0  0
    2.8167  -20.0875    0.0000 C   0  0  0  0  0  0  0  0  0  0  0  0
    3.5292  -19.6667    0.0000 N   0  0  0  0  0  0  0  0  0  0  0  0
    5.4917  -19.0667    0.0000 N   0  0  0  0  0  0  0  0  0  0  0  0
    1.3792  -20.9167    0.0000 C   0  0  0  0  0  0  0  0  0  0  0  0
    7.6417  -17.8125    0.0000 C   0  0  0  0  0  0  0  0  0  0  0  0
    1.3792  -20.0875    0.0000 C   0  0  0  0  0  0  0  0  0  0  0  0
    6.9167  -17.4042    0.0000 C   0  0  0  0  0  0  0  0  0  0  0  0
    2.0917  -21.3375    0.0000 C   0  0  0  0  0  0  0  0  0  0  0  0
    7.6500  -18.6417    0.0000 C   0  0  0  0  0  0  0  0  0  0  0  0
    6.2042  -17.8167    0.0000 C   0  0  0  0  0  0  0  0  0  0  0  0
    2.8167  -20.9167    0.0000 C   0  0  0  0  0  0  0  0  0  0  0  0
    6.9292  -19.0625    0.0000 C   0  0  0  0  0  0  0  0  0  0  0  0
    2.0917  -19.6750    0.0000 C   0  0  0  0  0  0  0  0  0  0  0  0
    4.8125  -19.2875    0.0000 C   0  0  0  0  0  0  0  0  0  0  0  0
    3.9417  -18.9500    0.0000 C   0  0  0  0  0  0  0  0  0  0  0  0
    4.1667  -19.4500    0.0000 C   0  0  0  0  0  0  0  0  0  0  0  0
    5.0792  -19.7792    0.0000 C   0  0  0  0  0  0  0  0  0  0  0  0
    8.3542  -17.3917    0.0000 O   0  0  0  0  0  0  0  0  0  0  0  0
    0.6542  -21.3375    0.0000 O   0  0  0  0  0  0  0  0  0  0  0  0
    6.9125  -16.5750    0.0000 O   0  0  0  0  0  0  0  0  0  0  0  0
    0.6625  -19.6792    0.0000 O   0  0  0  0  0  0  0  0  0  0  0  0
    8.3667  -19.0542    0.0000 O   0  0  0  0  0  0  0  0  0  0  0  0
    2.0917  -22.1667    0.0000 O   0  0  0  0  0  0  0  0  0  0  0  0
   -0.0583  -20.9167    0.0000 C   0  0  0  0  0  0  0  0  0  0  0  0
    9.0792  -17.8000    0.0000 C   0  0  0  0  0  0  0  0  0  0  0  0
    7.6250  -16.1500    0.0000 C   0  0  0  0  0  0  0  0  0  0  0  0
    8.3750  -19.8792    0.0000 C   0  0  0  0  0  0  0  0  0  0  0  0
    0.6625  -18.8500    0.0000 C   0  0  0  0  0  0  0  0  0  0  0  0
    1.3792  -22.5792    0.0000 C   0  0  0  0  0  0  0  0  0  0  0  0
  2  3  1  0
  3 17  1  0
  4  1  1  0
  5  7  2  0
  6 10  2  0
  7 14  1  0
  8 11  2  0
  9 12  2  0
 10 13  1  0
 11  1  1  0
 12  2  1  0
 13  1  2  0
 14  2  2  0
 15  4  1  0
 16 15  1  0
 17 18  1  0
 18  4  1  0
 19  6  1  0
 20  5  1  0
 21  8  1  0
 22  7  1  0
 23 10  1  0
 24  9  1  0
 25 20  1  0
 26 19  1  0
 27 21  1  0
 28 23  1  0
 29 22  1  0
 30 24  1  0
  6  8  1  0
 16  3  1  0
  5  9  1  0
M  END

> <chembl_id>
CHEMBL267229

> <chembl_pref_name>
None

$$$$

     RDKit          2D

 34 36  0  0  0  0  0  0  0  0999 V2000
    3.4042  -19.7042    0.0000 C   0  0  0  0  0  0  0  0  0  0  0  0
    6.8042  -19.9167    0.0000 C   0  0  0  0  0  0  0  0  0  0  0  0
    2.6917  -20.1167    0.0000 C   0  0  0  0  0  0  0  0  0  0  0  0
    7.5167  -19.5000    0.0000 C   0  0  0  0  0  0  0  0  0  0  0  0
    4.1292  -20.1125    0.0000 N   0  0  0  0  0  0  0  0  0  0  0  0
    6.0875  -19.5042    0.0000 N   0  0  0  0  0  0  0  0  0  0  0  0
    1.2542  -20.9542    0.0000 C   0  0  0  0  0  0  0  0  0  0  0  0
    8.9500  -18.6625    0.0000 C   0  0  0  0  0  0  0  0  0  0  0  0
    1.9667  -21.3667    0.0000 C   0  0  0  0  0  0  0  0  0  0  0  0
    8.9542  -19.4917    0.0000 C   0  0  0  0  0  0  0  0  0  0  0  0
    1.2542  -20.1250    0.0000 C   0  0  0  0  0  0  0  0  0  0  0  0
    8.2250  -18.2542    0.0000 C   0  0  0  0  0  0  0  0  0  0  0  0
    1.9667  -19.7042    0.0000 C   0  0  0  0  0  0  0  0  0  0  0  0
    2.6917  -20.9542    0.0000 C   0  0  0  0  0  0  0  0  0  0  0  0
    8.2417  -19.9125    0.0000 C   0  0  0  0  0  0  0  0  0  0  0  0
    7.5125  -18.6750    0.0000 C   0  0  0  0  0  0  0  0  0  0  0  0
    5.4042  -19.7292    0.0000 C   0  0  0  0  0  0  0  0  0  0  0  0
    4.5375  -19.3917    0.0000 C   0  0  0  0  0  0  0  0  0  0  0  0
    5.6792  -20.2167    0.0000 C   0  0  0  0  0  0  0  0  0  0  0  0
    4.7625  -19.8917    0.0000 C   0  0  0  0  0  0  0  0  0  0  0  0
    6.8042  -20.7500    0.0000 O   0  0  0  0  0  0  0  0  0  0  0  0
    3.4042  -18.8750    0.0000 O   0  0  0  0  0  0  0  0  0  0  0  0
    0.5292  -21.3667    0.0000 O   0  0  0  0  0  0  0  0  0  0  0  0
    9.6667  -18.2417    0.0000 O   0  0  0  0  0  0  0  0  0  0  0  0
    1.9667  -22.2000    0.0000 O   0  0  0  0  0  0  0  0  0  0  0  0
    8.2167  -17.4250    0.0000 O   0  0  0  0  0  0  0  0  0  0  0  0
    0.5375  -19.7125    0.0000 O   0  0  0  0  0  0  0  0  0  0  0  0
    9.6750  -19.9042    0.0000 O   0  0  0  0  0  0  0  0  0  0  0  0
   10.3792  -18.6542    0.0000 C   0  0  0  0  0  0  0  0  0  0  0  0
   -0.1833  -20.9542    0.0000 C   0  0  0  0  0  0  0  0  0  0  0  0
    1.2542  -22.6125    0.0000 C   0  0  0  0  0  0  0  0  0  0  0  0
    0.5375  -18.8792    0.0000 C   0  0  0  0  0  0  0  0  0  0  0  0
    8.9292  -17.0042    0.0000 C   0  0  0  0  0  0  0  0  0  0  0  0
    9.6792  -20.7375    0.0000 C   0  0  0  0  0  0  0  0  0  0  0  0
  2  6  1  0
  3  1  1  0
  4  2  1  0
  5  1  1  0
  6 19  1  0
  7  9  1  0
  8 12  1  0
  9 14  2  0
 10 15  1  0
 11 13  1  0
 12 16  2  0
 13  3  2  0
 14  3  1  0
 15  4  2  0
 16  4  1  0
 17 18  1  0
 18  5  1  0
 19 20  1  0
 20  5  1  0
 21  2  2  0
 22  1  2  0
 23  7  1  0
 24  8  1  0
 25  9  1  0
 26 12  1  0
 27 11  1  0
 28 10  1  0
 29 24  1  0
 30 23  1  0
 31 25  1  0
 32 27  1  0
 33 26  1  0
 34 28  1  0
  6 17  1  0
 11  7  2  0
 10  8  2  0
M  END

> <chembl_id>
CHEMBL6244

> <chembl_pref_name>
None

$$$$

     RDKit          2D

 44 47  0  0  1  0  0  0  0  0999 V2000
   -0.2458   -3.1667    0.0000 N   0  0  0  0  0  0  0  0  0  0  0  0
   -0.7333   -2.8167    0.0000 C   0  0  0  0  0  0  0  0  0  0  0  0
   -1.2208   -3.1667    0.0000 N   0  0  0  0  0  0  0  0  0  0  0  0
    4.5125   -3.2667    0.0000 C   0  0  0  0  0  0  0  0  0  0  0  0
   -1.0333   -3.7417    0.0000 C   0  0  0  0  0  0  0  0  0  0  0  0
    5.0792   -3.0792    0.0000 N   0  0  0  0  0  0  0  0  0  0  0  0
    6.1667   -5.4542    0.0000 C   0  0  0  0  0  0  0  0  0  0  0  0
   -0.4333   -3.7417    0.0000 C   0  0  0  0  0  0  0  0  0  0  0  0
    6.7417   -5.2667    0.0000 C   0  0  0  0  0  0  0  0  0  0  0  0
    5.7250   -5.0542    0.0000 C   0  0  0  0  0  0  0  0  0  0  0  0
    4.3917   -3.8542    0.0000 O   0  0  0  0  0  0  0  0  0  0  0  0
    5.8542   -4.4667    0.0000 C   0  0  0  0  0  0  0  0  0  0  0  0
    4.0667   -2.8667    0.0000 C   0  0  0  0  0  0  0  0  0  0  0  0
    6.8667   -4.6792    0.0000 C   0  0  0  0  0  0  0  0  0  0  0  0
    5.5292   -3.4792    0.0000 C   0  0  0  0  0  0  0  0  0  0  0  0
    5.4042   -4.0667    0.0000 C   0  0  0  0  0  0  0  0  0  0  0  0
    3.4917   -3.0500    0.0000 C   0  0  0  0  0  0  0  0  0  0  0  0
    6.4167   -4.2792    0.0000 C   0  0  0  0  0  0  0  0  0  0  0  0
    7.1917   -5.6667    0.0000 O   0  0  0  0  0  0  0  0  0  0  0  0
    2.3542   -3.4167    0.0000 C   0  0  0  0  0  0  0  0  0  0  0  0
    0.3250   -2.9875    0.0000 C   0  0  0  0  0  0  0  0  0  0  0  0
    3.0500   -2.6500    0.0000 C   0  0  0  0  0  0  0  0  0  0  0  0
    3.3667   -3.6375    0.0000 C   0  0  0  0  0  0  0  0  0  0  0  0
    4.6542   -7.5875    0.0000 N   0  0  0  0  0  0  0  0  0  0  0  0
    2.8000   -3.8250    0.0000 C   0  0  0  0  0  0  0  0  0  0  0  0
    2.4792   -2.8375    0.0000 C   0  0  0  0  0  0  0  0  0  0  0  0
   -0.7333   -2.2167    0.0000 C   0  0  0  0  0  0  0  0  0  0  0  0
    7.7542   -5.4792    0.0000 C   0  0  0  0  0  0  0  0  0  0  0  0
    6.5417   -3.6917    0.0000 O   0  0  0  0  0  0  0  0  0  0  0  0
    6.0417   -6.0417    0.0000 C   0  0  0  0  0  0  0  0  0  0  0  0
    8.7750   -5.7000    0.0000 C   0  0  0  0  0  0  0  0  0  0  0  0
    6.1000   -3.2917    0.0000 C   0  0  0  0  0  0  0  0  0  0  0  0
    8.2042   -5.8875    0.0000 C   0  0  0  0  0  0  0  0  0  0  0  0
    4.7792   -7.0042    0.0000 C   0  0  0  0  0  0  0  0  0  0  0  0
    1.7875   -3.6042    0.0000 C   0  0  0  0  0  0  0  0  0  0  0  0
    0.7667   -3.3875    0.0000 C   0  0  0  0  0  0  0  0  0  0  0  0
    9.2167   -6.1042    0.0000 C   0  0  0  0  0  0  0  0  0  0  0  0
    8.8917   -5.1125    0.0000 C   0  0  0  0  0  0  0  0  0  0  0  0
    5.4750   -6.2292    0.0000 C   0  0  0  0  0  0  0  0  0  0  0  0
    5.3542   -6.8167    0.0000 C   0  0  0  0  0  0  0  0  0  0  0  0
    1.3417   -3.2042    0.0000 C   0  0  0  0  0  0  0  0  0  0  0  0
    9.4667   -4.9292    0.0000 C   0  0  0  0  0  0  0  0  0  0  0  0
    9.7875   -5.9167    0.0000 C   0  0  0  0  0  0  0  0  0  0  0  0
    9.9167   -5.3292    0.0000 C   0  0  0  0  0  0  0  0  0  0  0  0
  2  1  1  0
  3  2  2  0
  4 13  1  0
  5  8  2  0
  6  4  1  0
  7 10  1  0
  8  1  1  0
  9 14  1  0
 10 12  2  0
 11  4  2  0
 12 16  1  0
 13 17  1  0
 14 18  2  0
 15  6  1  0
 15 16  1  6
 17 22  1  0
 18 12  1  0
 19  9  1  0
 20 35  1  0
 21  1  1  0
 22 26  2  0
 23 25  1  0
 24 34  1  0
 25 20  2  0
 26 20  1  0
 27  2  1  0
 28 19  1  0
 29 32  1  0
 30  7  1  0
 31 33  1  0
 32 15  1  0
 33 28  1  0
 34 40  1  0
 35 41  1  0
 36 21  1  0
 37 31  1  0
 38 31  1  0
 39 30  1  0
 40 39  1  0
 41 36  1  0
 42 38  1  0
 43 37  1  0
 44 42  1  0
  5  3  1  0
 17 23  2  0
  9  7  2  0
 44 43  1  0
M  END

> <chembl_id>
CHEMBL6227

> <chembl_pref_name>
None

$$$$

     RDKit          2D

 43 46  0  0  1  0  0  0  0  0999 V2000
   -0.2458   -3.1667    0.0000 N   0  0  0  0  0  0  0  0  0  0  0  0
   -0.7333   -2.8167    0.0000 C   0  0  0  0  0  0  0  0  0  0  0  0
   -1.2208   -3.1667    0.0000 N   0  0  0  0  0  0  0  0  0  0  0  0
    4.5125   -3.2667    0.0000 C   0  0  0  0  0  0  0  0  0  0  0  0
   -1.0333   -3.7417    0.0000 C   0  0  0  0  0  0  0  0  0  0  0  0
    5.0792   -3.0792    0.0000 N   0  0  0  0  0  0  0  0  0  0  0  0
    6.1667   -5.4542    0.0000 C   0  0  0  0  0  0  0  0  0  0  0  0
   -0.4333   -3.7417    0.0000 C   0  0  0  0  0  0  0  0  0  0  0  0
    6.7417   -5.2667    0.0000 C   0  0  0  0  0  0  0  0  0  0  0  0
    5.7250   -5.0542    0.0000 C   0  0  0  0  0  0  0  0  0  0  0  0
    4.3917   -3.8542    0.0000 O   0  0  0  0  0  0  0  0  0  0  0  0
    5.8542   -4.4667    0.0000 C   0  0  0  0  0  0  0  0  0  0  0  0
    4.0667   -2.8667    0.0000 C   0  0  0  0  0  0  0  0  0  0  0  0
    6.8667   -4.6792    0.0000 C   0  0  0  0  0  0  0  0  0  0  0  0
    5.5292   -3.4792    0.0000 C   0  0  0  0  0  0  0  0  0  0  0  0
    5.4042   -4.0667    0.0000 C   0  0  0  0  0  0  0  0  0  0  0  0
    3.4917   -3.0500    0.0000 C   0  0  0  0  0  0  0  0  0  0  0  0
    6.4167   -4.2792    0.0000 C   0  0  0  0  0  0  0  0  0  0  0  0
    7.1917   -5.6667    0.0000 O   0  0  0  0  0  0  0  0  0  0  0  0
    2.3542   -3.4167    0.0000 C   0  0  0  0  0  0  0  0  0  0  0  0
    0.3250   -2.9875    0.0000 C   0  0  0  0  0  0  0  0  0  0  0  0
    3.0500   -2.6500    0.0000 C   0  0  0  0  0  0  0  0  0  0  0  0
    3.3667   -3.6375    0.0000 C   0  0  0  0  0  0  0  0  0  0  0  0
    4.7792   -7.0042    0.0000 N   0  0  0  0  0  0  0  0  0  0  0  0
    2.8000   -3.8250    0.0000 C   0  0  0  0  0  0  0  0  0  0  0  0
    2.4792   -2.8375    0.0000 C   0  0  0  0  0  0  0  0  0  0  0  0
   -0.7333   -2.2167    0.0000 C   0  0  0  0  0  0  0  0  0  0  0  0
    7.7542   -5.4792    0.0000 C   0  0  0  0  0  0  0  0  0  0  0  0
    6.5417   -3.6917    0.0000 O   0  0  0  0  0  0  0  0  0  0  0  0
    6.0417   -6.0417    0.0000 C   0  0  0  0  0  0  0  0  0  0  0  0
    8.7750   -5.7000    0.0000 C   0  0  0  0  0  0  0  0  0  0  0  0
    6.1000   -3.2917    0.0000 C   0  0  0  0  0  0  0  0  0  0  0  0
    8.2042   -5.8875    0.0000 C   0  0  0  0  0  0  0  0  0  0  0  0
    5.3542   -6.8167    0.0000 C   0  0  0  0  0  0  0  0  0  0  0  0
    1.7875   -3.6042    0.0000 C   0  0  0  0  0  0  0  0  0  0  0  0
    0.7667   -3.3875    0.0000 C   0  0  0  0  0  0  0  0  0  0  0  0
    5.4750   -6.2292    0.0000 C   0  0  0  0  0  0  0  0  0  0  0  0
    8.8917   -5.1125    0.0000 C   0  0  0  0  0  0  0  0  0  0  0  0
    9.2167   -6.1042    0.0000 C   0  0  0  0  0  0  0  0  0  0  0  0
    1.3417   -3.2042    0.0000 C   0  0  0  0  0  0  0  0  0  0  0  0
    9.7875   -5.9167    0.0000 C   0  0  0  0  0  0  0  0  0  0  0  0
    9.4667   -4.9292    0.0000 C   0  0  0  0  0  0  0  0  0  0  0  0
    9.9167   -5.3292    0.0000 C   0  0  0  0  0  0  0  0  0  0  0  0
  2  1  1  0
  3  2  2  0
  4 13  1  0
  5  8  2  0
  6  4  1  0
  7 10  1  0
  8  1  1  0
  9 14  1  0
 10 12  2  0
 11  4  2  0
 12 16  1  0
 13 17  1  0
 14 18  2  0
 15  6  1  0
 15 16  1  1
 17 22  1  0
 18 12  1  0
 19  9  1  0
 20 35  1  0
 21  1  1  0
 22 26  2  0
 23 25  1  0
 24 34  1  0
 25 20  2  0
 26 20  1  0
 27  2  1  0
 28 19  1  0
 29 32  1  0
 30  7  1  0
 31 33  1  0
 32 15  1  0
 33 28  1  0
 34 37  1  0
 35 40  1  0
 36 21  1  0
 37 30  1  0
 38 31  1  0
 39 31  1  0
 40 36  1  0
 41 39  1  0
 42 38  1  0
 43 41  1  0
  5  3  1  0
 17 23  2  0
  9  7  2  0
 43 42  1  0
M  END

> <chembl_id>
CHEMBL6242

> <chembl_pref_name>
None

$$$$

     RDKit          2D

 43 45  0  0  0  0  0  0  0  0999 V2000
    5.9917  -19.0417    0.0000 N   0  0  0  0  0  0  0  0  0  0  0  0
    6.7042  -19.4625    0.0000 C   0  0  0  0  0  0  0  0  0  0  0  0
    4.0292  -19.6542    0.0000 N   0  0  0  0  0  0  0  0  0  0  0  0
    3.3125  -19.2417    0.0000 C   0  0  0  0  0  0  0  0  0  0  0  0
    7.4250  -19.0417    0.0000 C   0  0  0  0  0  0  0  0  0  0  0  0
    2.5917  -19.6625    0.0000 C   0  0  0  0  0  0  0  0  0  0  0  0
    5.5792  -19.7625    0.0000 C   0  0  0  0  0  0  0  0  0  0  0  0
    1.1542  -20.4917    0.0000 C   0  0  0  0  0  0  0  0  0  0  0  0
    8.8542  -18.2042    0.0000 C   0  0  0  0  0  0  0  0  0  0  0  0
    4.6667  -19.4292    0.0000 C   0  0  0  0  0  0  0  0  0  0  0  0
    1.8750  -20.9125    0.0000 C   0  0  0  0  0  0  0  0  0  0  0  0
    8.8542  -19.0292    0.0000 C   0  0  0  0  0  0  0  0  0  0  0  0
    1.1542  -19.6667    0.0000 C   0  0  0  0  0  0  0  0  0  0  0  0
    8.1292  -17.7917    0.0000 C   0  0  0  0  0  0  0  0  0  0  0  0
    5.6250  -21.9417    0.0000 C   0  0  0  0  0  0  0  0  0  0  0  0
    5.3125  -19.2667    0.0000 C   0  0  0  0  0  0  0  0  0  0  0  0
    7.4167  -18.2167    0.0000 C   0  0  0  0  0  0  0  0  0  0  0  0
    8.1417  -19.4542    0.0000 C   0  0  0  0  0  0  0  0  0  0  0  0
    1.8750  -19.2500    0.0000 C   0  0  0  0  0  0  0  0  0  0  0  0
    2.5917  -20.4917    0.0000 C   0  0  0  0  0  0  0  0  0  0  0  0
    4.4417  -18.9292    0.0000 C   0  0  0  0  0  0  0  0  0  0  0  0
    6.7042  -20.2875    0.0000 O   0  0  0  0  0  0  0  0  0  0  0  0
    3.3042  -18.4167    0.0000 O   0  0  0  0  0  0  0  0  0  0  0  0
    5.8667  -20.5375    0.0000 C   0  0  0  0  0  0  0  0  0  0  0  0
    5.3417  -21.1667    0.0000 O   0  0  0  0  0  0  0  0  0  0  0  0
    6.4375  -22.0875    0.0000 O   0  0  0  0  0  0  0  0  0  0  0  0
    5.1000  -22.5792    0.0000 N   0  0  0  0  0  0  0  0  0  0  0  0
    9.5667  -17.7875    0.0000 O   0  0  0  0  0  0  0  0  0  0  0  0
    0.4375  -20.9125    0.0000 O   0  0  0  0  0  0  0  0  0  0  0  0
    9.5792  -19.4500    0.0000 O   0  0  0  0  0  0  0  0  0  0  0  0
    1.8750  -21.7417    0.0000 O   0  0  0  0  0  0  0  0  0  0  0  0
    8.1167  -16.9667    0.0000 O   0  0  0  0  0  0  0  0  0  0  0  0
    0.4417  -19.2542    0.0000 O   0  0  0  0  0  0  0  0  0  0  0  0
    5.3792  -23.3542    0.0000 C   0  0  0  0  0  0  0  0  0  0  0  0
   10.2875  -18.1917    0.0000 C   0  0  0  0  0  0  0  0  0  0  0  0
   -0.2750  -20.4917    0.0000 C   0  0  0  0  0  0  0  0  0  0  0  0
    1.1542  -22.1542    0.0000 C   0  0  0  0  0  0  0  0  0  0  0  0
    0.4417  -18.4250    0.0000 C   0  0  0  0  0  0  0  0  0  0  0  0
    8.8375  -16.5417    0.0000 C   0  0  0  0  0  0  0  0  0  0  0  0
    9.5792  -20.2792    0.0000 C   0  0  0  0  0  0  0  0  0  0  0  0
    4.8542  -23.9875    0.0000 C   0  0  0  0  0  0  0  0  0  0  0  0
    5.1417  -24.7625    0.0000 C   0  0  0  0  0  0  0  0  0  0  0  0
    4.6167  -25.3917    0.0000 C   0  0  0  0  0  0  0  0  0  0  0  0
  2  1  1  0
  3 21  1  0
  4  3  1  0
  5  2  1  0
  6  4  1  0
  7  1  1  0
  8 11  1  0
  9 12  2  0
 10  7  1  0
 11 20  2  0
 12 18  1  0
 13 19  1  0
 14 17  2  0
 15 25  1  0
 16  1  1  0
 17  5  1  0
 18  5  2  0
 19  6  2  0
 20  6  1  0
 21 16  1  0
 22  2  2  0
 23  4  2  0
 24  7  1  0
 25 24  1  0
 26 15  2  0
 27 15  1  0
 28  9  1  0
 29  8  1  0
 30 12  1  0
 31 11  1  0
 32 14  1  0
 33 13  1  0
 34 27  1  0
 35 28  1  0
 36 29  1  0
 37 31  1  0
 38 33  1  0
 39 32  1  0
 40 30  1  0
 41 34  1  0
 42 41  1  0
 43 42  1  0
  3 10  1  0
  9 14  1  0
 13  8  2  0
M  END

> <chembl_id>
CHEMBL269340

> <chembl_pref_name>
None

$$$$

     RDKit          2D

 19 19  0  0  1  0  0  0  0  0999 V2000
    2.6125    0.6333    0.0000 N   0  0  0  0  0  0  0  0  0  0  0  0
   -3.1333   -1.8042    0.0000 C   0  0  0  0  0  0  0  0  0  0  0  0
    1.8875    0.2208    0.0000 C   0  0  0  0  0  0  0  0  0  0  0  0
   -0.9625   -0.6042    0.0000 C   0  0  0  0  0  0  0  0  0  0  0  0
    3.3292    0.2208    0.0000 O   0  0  0  0  0  0  0  0  0  0  0  0
    2.6042    1.4583    0.0000 O   0  0  0  0  0  0  0  0  0  0  0  0
   -0.2625   -1.0417    0.0000 N   0  0  0  0  0  0  0  0  0  0  0  0
   -3.8583   -2.2000    0.0000 O   0  0  0  0  0  0  0  0  0  0  0  0
   -2.4333   -2.2292    0.0000 C   0  0  0  0  0  0  0  0  0  0  0  0
   -0.9500    0.2208    0.0000 O   0  0  0  0  0  0  0  0  0  0  0  0
    1.8875   -0.6167    0.0000 C   0  0  0  0  0  0  0  0  0  0  0  0
    1.1750    0.6333    0.0000 C   0  0  0  0  0  0  0  0  0  0  0  0
   -1.7083   -1.8292    0.0000 C   0  0  0  0  0  0  0  0  0  0  0  0
    0.4625   -0.6167    0.0000 C   0  0  0  0  0  0  0  0  0  0  0  0
   -1.6875   -1.0042    0.0000 C   0  0  0  0  0  0  0  0  0  0  0  0
   -3.1208   -0.9792    0.0000 O   0  0  0  0  0  0  0  0  0  0  0  0
   -2.4458   -3.0542    0.0000 N   0  0  0  0  0  0  0  0  0  0  0  0
    1.1750   -1.0292    0.0000 C   0  0  0  0  0  0  0  0  0  0  0  0
    0.4625    0.2083    0.0000 C   0  0  0  0  0  0  0  0  0  0  0  0
  2  9  1  0
  3  1  1  0
  4  7  1  0
  5  1  1  0
  6  1  2  0
  7 14  1  0
  8  2  2  0
  9 13  1  6
 10  4  2  0
 11  3  1  0
 12  3  2  0
 13 15  1  0
 14 19  2  0
 15  4  1  0
 16  2  1  0
 17  9  1  0
 18 11  2  0
 19 12  1  0
 18 14  1  0
M  CHG  2   1   1   5  -1
M  END

> <chembl_id>
CHEMBL6251

> <chembl_pref_name>
None

$$$$

     RDKit          2D

  8  7  0  0  0  0  0  0  0  0999 V2000
    1.6552   -3.9451    0.0000 C   0  0  0  0  0  0  0  0  0  0  0  0
    2.3485   -5.1931    0.0000 O   0  0  0  0  0  0  0  0  0  0  0  0
    2.3597   -4.3681    0.0000 C   0  0  0  0  0  0  0  0  0  0  0  0
    1.6664   -3.1202    0.0000 C   0  0  0  0  0  0  0  0  0  0  0  0
    3.0826   -3.9704    0.0000 O   0  0  0  0  0  0  0  0  0  0  0  0
    3.7871   -4.3934    0.0000 C   0  0  0  0  0  0  0  0  0  0  0  0
    0.9324   -4.3429    0.0000 N   0  0  0  0  0  0  0  0  0  0  0  0
    2.3914   -2.7189    0.0000 O   0  0  0  0  0  0  0  0  0  0  0  0
  1  3  1  0
  3  2  2  0
  1  4  1  1
  5  6  1  0
  3  5  1  0
  7  1  1  0
  4  8  1  0
M  END

> <chembl_id>
CHEMBL440577

> <chembl_pref_name>
None

$$$$

     RDKit          2D

 20 19  0  0  0  0  0  0  0  0999 V2000
   -3.2833   -4.1875    0.0000 Cl  0  0  0  0  0  0  0  0  0  0  0  0
    3.8292   -5.9167    0.0000 N   0  0  0  0  0  0  0  0  0  0  0  0
    0.2417   -7.1917    0.0000 C   0  0  0  0  0  0  0  0  0  0  0  0
   -0.5000   -5.1375    0.0000 C   0  0  0  0  0  0  0  0  0  0  0  0
    0.2125   -4.7167    0.0000 C   0  0  0  0  0  0  0  0  0  0  0  0
    3.1042   -6.3417    0.0000 C   0  0  0  0  0  0  0  0  0  0  0  0
    4.5500   -6.3292    0.0000 O   0  0  0  0  0  0  0  0  0  0  0  0
    0.9542   -7.5917    0.0000 N   0  0  0  0  0  0  0  0  0  0  0  0
   -1.2208   -4.7292    0.0000 N   0  0  0  0  0  0  0  0  0  0  0  0
    0.2292   -6.3667    0.0000 N   0  0  0  0  0  0  0  0  0  0  0  0
    3.8250   -5.0917    0.0000 O   0  0  0  0  0  0  0  0  0  0  0  0
   -0.4875   -5.9625    0.0000 C   0  0  0  0  0  0  0  0  0  0  0  0
   -0.4708   -7.6125    0.0000 O   0  0  0  0  0  0  0  0  0  0  0  0
    0.2000   -3.8917    0.0000 O   0  0  0  0  0  0  0  0  0  0  0  0
    3.1042   -7.1667    0.0000 C   0  0  0  0  0  0  0  0  0  0  0  0
    2.3917   -5.9292    0.0000 C   0  0  0  0  0  0  0  0  0  0  0  0
    1.6792   -7.1667    0.0000 C   0  0  0  0  0  0  0  0  0  0  0  0
    0.9292   -5.1167    0.0000 O   0  0  0  0  0  0  0  0  0  0  0  0
    1.6792   -6.3417    0.0000 C   0  0  0  0  0  0  0  0  0  0  0  0
    2.3917   -7.5792    0.0000 C   0  0  0  0  0  0  0  0  0  0  0  0
  3  8  1  0
  4 12  1  6
  5  4  1  0
  6  2  1  0
  7  2  1  0
  8 17  1  0
  9  4  1  0
 10  3  1  0
 11  2  2  0
 12 10  1  0
 13  3  2  0
 14  5  2  0
 15  6  1  0
 16  6  2  0
 17 20  1  0
 18  5  1  0
 19 16  1  0
 20 15  2  0
 19 17  2  0
M  CHG  2   2   1   7  -1
M  END

> <chembl_id>
CHEMBL263074

> <chembl_pref_name>
None

$$$$

     RDKit          2D

 21 20  0  0  0  0  0  0  0  0999 V2000
    7.5417   -2.8417    0.0000 Cl  0  0  0  0  0  0  0  0  0  0  0  0
   14.6542   -4.5792    0.0000 N   0  0  0  0  0  0  0  0  0  0  0  0
   11.0667   -5.8500    0.0000 C   0  0  0  0  0  0  0  0  0  0  0  0
   10.3292   -3.7917    0.0000 C   0  0  0  0  0  0  0  0  0  0  0  0
   11.0417   -3.3750    0.0000 C   0  0  0  0  0  0  0  0  0  0  0  0
   13.9375   -5.0000    0.0000 C   0  0  0  0  0  0  0  0  0  0  0  0
   15.3792   -4.9917    0.0000 O   0  0  0  0  0  0  0  0  0  0  0  0
   11.7875   -6.2542    0.0000 N   0  0  0  0  0  0  0  0  0  0  0  0
    9.6125   -3.3917    0.0000 N   0  0  0  0  0  0  0  0  0  0  0  0
   14.6542   -3.7542    0.0000 O   0  0  0  0  0  0  0  0  0  0  0  0
   11.0542   -5.0250    0.0000 O   0  0  0  0  0  0  0  0  0  0  0  0
   10.3542   -6.2667    0.0000 O   0  0  0  0  0  0  0  0  0  0  0  0
   10.3417   -4.6167    0.0000 C   0  0  0  0  0  0  0  0  0  0  0  0
   11.0292   -2.5500    0.0000 O   0  0  0  0  0  0  0  0  0  0  0  0
   13.9375   -5.8292    0.0000 C   0  0  0  0  0  0  0  0  0  0  0  0
   13.2167   -4.5875    0.0000 C   0  0  0  0  0  0  0  0  0  0  0  0
   12.5042   -5.8292    0.0000 C   0  0  0  0  0  0  0  0  0  0  0  0
   11.7542   -3.7792    0.0000 O   0  0  0  0  0  0  0  0  0  0  0  0
   12.5042   -5.0000    0.0000 C   0  0  0  0  0  0  0  0  0  0  0  0
   13.2167   -6.2417    0.0000 C   0  0  0  0  0  0  0  0  0  0  0  0
   12.4667   -3.3542    0.0000 C   0  0  0  0  0  0  0  0  0  0  0  0
  3  8  1  0
  4 13  1  6
  5  4  1  0
  6  2  1  0
  7  2  1  0
  8 17  1  0
  9  4  1  0
 10  2  2  0
 11  3  1  0
 12  3  2  0
 13 11  1  0
 14  5  2  0
 15  6  1  0
 16  6  2  0
 17 20  1  0
 18  5  1  0
 19 16  1  0
 20 15  2  0
 21 18  1  0
 19 17  2  0
M  CHG  2   2   1   7  -1
M  END

> <chembl_id>
CHEMBL6267

> <chembl_pref_name>
None

$$$$

     RDKit          2D

 21 20  0  0  0  0  0  0  0  0999 V2000
   -5.1583    2.5333    0.0000 Cl  0  0  0  0  0  0  0  0  0  0  0  0
    1.8292    0.9958    0.0000 N   0  0  0  0  0  0  0  0  0  0  0  0
   -1.7833    2.1958    0.0000 C   0  0  0  0  0  0  0  0  0  0  0  0
    1.1125    0.5708    0.0000 C   0  0  0  0  0  0  0  0  0  0  0  0
   -1.7583   -0.2792    0.0000 C   0  0  0  0  0  0  0  0  0  0  0  0
    2.5542    0.5833    0.0000 O   0  0  0  0  0  0  0  0  0  0  0  0
    1.8292    1.8208    0.0000 O   0  0  0  0  0  0  0  0  0  0  0  0
   -1.0375   -0.6792    0.0000 N   0  0  0  0  0  0  0  0  0  0  0  0
   -3.2125    2.1833    0.0000 N   0  0  0  0  0  0  0  0  0  0  0  0
   -2.4958    1.7750    0.0000 C   0  0  0  0  0  0  0  0  0  0  0  0
   -1.7958    3.0208    0.0000 O   0  0  0  0  0  0  0  0  0  0  0  0
   -2.4708   -0.7000    0.0000 O   0  0  0  0  0  0  0  0  0  0  0  0
    1.1125   -0.2542    0.0000 C   0  0  0  0  0  0  0  0  0  0  0  0
    0.3917    0.9833    0.0000 C   0  0  0  0  0  0  0  0  0  0  0  0
   -2.4833    0.9500    0.0000 C   0  0  0  0  0  0  0  0  0  0  0  0
   -0.3208   -0.2542    0.0000 C   0  0  0  0  0  0  0  0  0  0  0  0
   -1.7708    0.5458    0.0000 C   0  0  0  0  0  0  0  0  0  0  0  0
   -1.0708    1.7958    0.0000 O   0  0  0  0  0  0  0  0  0  0  0  0
   -0.3208    0.5708    0.0000 C   0  0  0  0  0  0  0  0  0  0  0  0
    0.3917   -0.6667    0.0000 C   0  0  0  0  0  0  0  0  0  0  0  0
   -0.3583    2.2125    0.0000 C   0  0  0  0  0  0  0  0  0  0  0  0
  3 10  1  0
  4  2  1  0
  5  8  1  0
  6  2  1  0
  7  2  2  0
  8 16  1  0
  9 10  1  0
 10 15  1  6
 11  3  2  0
 12  5  2  0
 13  4  1  0
 14  4  2  0
 15 17  1  0
 16 20  1  0
 17  5  1  0
 18  3  1  0
 19 14  1  0
 20 13  2  0
 21 18  1  0
 19 16  2  0
M  CHG  2   2   1   6  -1
M  END

> <chembl_id>
CHEMBL6285

> <chembl_pref_name>
None

$$$$

     RDKit          2D

 24 25  0  0  1  0  0  0  0  0999 V2000
    4.6778   -4.2677    0.0000 N   0  0  0  0  0  0  0  0  0  0  0  0
    4.5745   -2.9329    0.0000 S   0  0  0  0  0  0  0  0  0  0  0  0
    5.1095   -3.5641    0.0000 C   0  0  0  0  0  0  0  0  0  0  0  0
    3.8706   -4.0678    0.0000 C   0  0  0  0  0  0  0  0  0  0  0  0
    3.8032   -3.2470    0.0000 C   0  0  0  0  0  0  0  0  0  0  0  0
    5.3813   -4.6993    0.0000 C   0  0  0  0  0  0  0  0  0  0  0  0
    5.8130   -3.9958    0.0000 C   0  0  0  0  0  0  0  0  0  0  0  0
    3.2725   -4.6388    0.0000 C   0  0  0  0  0  0  0  0  0  0  0  0
    8.5725   -4.8137    0.0000 C   0  0  0  0  0  0  0  0  0  0  0  0
    4.1754   -2.1976    0.0000 O   0  0  0  0  0  0  0  0  0  0  0  0
    5.5837   -5.5076    0.0000 O   0  0  0  0  0  0  0  0  0  0  0  0
    8.3365   -5.6102    0.0000 N   0  0  0  0  0  0  0  0  0  0  0  0
    8.0027   -4.2116    0.0000 C   0  0  0  0  0  0  0  0  0  0  0  0
    7.1968   -4.4059    0.0000 C   0  0  0  0  0  0  0  0  0  0  0  0
    2.4760   -4.4028    0.0000 O   0  0  0  0  0  0  0  0  0  0  0  0
    9.3784   -4.6193    0.0000 O   0  0  0  0  0  0  0  0  0  0  0  0
    6.6189   -3.8014    0.0000 C   0  0  0  0  0  0  0  0  0  0  0  0
    3.2345   -2.6408    0.0000 C   0  0  0  0  0  0  0  0  0  0  0  0
    3.0771   -3.6444    0.0000 C   0  0  0  0  0  0  0  0  0  0  0  0
    3.4749   -5.4471    0.0000 O   0  0  0  0  0  0  0  0  0  0  0  0
    8.9063   -6.2123    0.0000 O   0  0  0  0  0  0  0  0  0  0  0  0
    7.5306   -5.8045    0.0000 C   0  0  0  0  0  0  0  0  0  0  0  0
    9.7122   -6.0179    0.0000 C   0  0  0  0  0  0  0  0  0  0  0  0
    5.8448   -3.1650    0.0000 H   0  0  0  0  0  0  0  0  0  0  0  0
  2  3  1  0
  3  1  1  0
  4  1  1  0
  5  4  1  0
  6  1  1  0
  7  6  1  0
  4  8  1  1
  9 13  1  0
 10  2  1  0
 11  6  2  0
 12  9  1  0
 13 14  2  0
 14 17  1  0
 15  8  2  0
 16  9  2  0
 17  7  1  0
 18  5  1  0
 19  5  1  0
 20  8  1  0
 21 12  1  0
 22 12  1  0
 23 21  1  0
  3 24  1  1
  3  7  1  0
  5  2  1  0
M  CHG  2   2   1  10  -1
M  END

> <chembl_id>
CHEMBL267627

> <chembl_pref_name>
None

$$$$

     RDKit          2D

 21 22  0  0  1  0  0  0  0  0999 V2000
    7.7125   -5.3500    0.0000 S   0  0  0  0  0  0  0  0  0  0  0  0
    7.2375   -6.5917    0.0000 N   0  0  0  0  0  0  0  0  0  0  0  0
    8.3542   -5.8667    0.0000 C   0  0  0  0  0  0  0  0  0  0  0  0
    7.0250   -5.8000    0.0000 C   0  0  0  0  0  0  0  0  0  0  0  0
    8.0542   -6.6292    0.0000 C   0  0  0  0  0  0  0  0  0  0  0  0
    6.4417   -6.8042    0.0000 C   0  0  0  0  0  0  0  0  0  0  0  0
    6.2292   -6.0125    0.0000 C   0  0  0  0  0  0  0  0  0  0  0  0
    8.4667   -7.3417    0.0000 C   0  0  0  0  0  0  0  0  0  0  0  0
    7.1250   -4.7625    0.0000 O   0  0  0  0  0  0  0  0  0  0  0  0
    8.2917   -4.7625    0.0000 O   0  0  0  0  0  0  0  0  0  0  0  0
    6.0250   -7.5167    0.0000 O   0  0  0  0  0  0  0  0  0  0  0  0
    9.2917   -7.3417    0.0000 O   0  0  0  0  0  0  0  0  0  0  0  0
    9.0667   -5.4500    0.0000 C   0  0  0  0  0  0  0  0  0  0  0  0
    8.9375   -6.4500    0.0000 C   0  0  0  0  0  0  0  0  0  0  0  0
    5.5167   -5.6000    0.0000 C   0  0  0  0  0  0  0  0  0  0  0  0
    4.0875   -5.6000    0.0000 C   0  0  0  0  0  0  0  0  0  0  0  0
    4.8000   -6.0125    0.0000 C   0  0  0  0  0  0  0  0  0  0  0  0
    2.6542   -5.6000    0.0000 O   0  0  0  0  0  0  0  0  0  0  0  0
    3.3750   -6.0125    0.0000 C   0  0  0  0  0  0  0  0  0  0  0  0
    8.0500   -8.0542    0.0000 O   0  0  0  0  0  0  0  0  0  0  0  0
    6.4375   -5.2125    0.0000 H   0  0  0  0  0  0  0  0  0  0  0  0
  2  4  1  0
  3  1  1  0
  4  1  1  0
  5  3  1  0
  6  7  1  0
  7  4  1  0
  5  8  1  6
  9  1  2  0
 10  1  2  0
 11  6  2  0
 12  8  2  0
 13  3  1  0
 14  3  1  0
 15  7  1  0
 16 17  2  0
 17 15  1  0
 18 19  2  0
 19 16  1  0
 20  8  1  0
  4 21  1  6
  2  5  1  0
  2  6  1  0
M  END

> <chembl_id>
CHEMBL6286

> <chembl_pref_name>
None

$$$$

     RDKit          2D

 15 16  0  0  1  0  0  0  0  0999 V2000
    0.2455   -2.1211    0.0000 C   0  0  0  0  0  0  0  0  0  0  0  0
    0.7500   -1.0323    0.0000 C   0  0  0  0  0  0  0  0  0  0  0  0
    1.9414   -0.8892    0.0000 C   0  0  0  0  0  0  0  0  0  0  0  0
    1.2135    0.3943    0.0000 C   0  0  0  0  0  0  0  0  0  0  0  0
    0.0000    1.2760    0.0000 N   0  0  0  0  0  0  0  0  0  0  0  0
   -1.2135    0.3943    0.0000 C   0  0  0  0  0  0  0  0  0  0  0  0
   -2.0931    1.6049    0.0000 C   0  0  0  0  0  0  0  0  0  0  0  0
   -0.8796    2.4866    0.0000 C   0  0  0  0  0  0  0  0  0  0  0  0
   -0.6918    3.6718    0.0000 O   0  0  0  0  0  0  0  0  0  0  0  0
   -0.7500   -1.0323    0.0000 S   0  0  0  0  0  0  0  0  0  0  0  0
   -0.2455   -2.1211    0.0000 O   0  0  0  0  0  0  0  0  0  0  0  0
   -1.9414   -0.8892    0.0000 O   0  0  0  0  0  0  0  0  0  0  0  0
    2.6394    0.8543    0.0000 C   0  0  0  0  0  0  0  0  0  0  0  0
    3.5300    0.0501    0.0000 O   0  0  0  0  0  0  0  0  0  0  0  0
    2.8910    2.0277    0.0000 O   0  0  0  0  0  0  0  0  0  0  0  0
  1  2  1  0
  2  3  1  0
  2  4  1  0
  4  5  1  0
  5  6  1  0
  6  7  1  6
  7  8  1  0
  8  5  1  0
  8  9  2  0
  6 10  1  0
 10  2  1  0
 10 11  2  0
 10 12  2  0
  4 13  1  1
 13 14  2  0
 13 15  1  0
M  END

> <chembl_id>
CHEMBL403

> <chembl_pref_name>
SULBACTAM

$$$$

     RDKit          2D

 27 29  0  0  0  0  0  0  0  0999 V2000
    5.2875   -2.7042    0.0000 C   0  0  0  0  0  0  0  0  0  0  0  0
    3.8625   -3.5417    0.0000 C   0  0  0  0  0  0  0  0  0  0  0  0
    3.8625   -2.7167    0.0000 C   0  0  0  0  0  0  0  0  0  0  0  0
    4.5792   -3.9542    0.0000 N   0  0  0  0  0  0  0  0  0  0  0  0
    3.1417   -3.9542    0.0000 C   0  0  0  0  0  0  0  0  0  0  0  0
    4.5667   -2.3000    0.0000 C   0  0  0  0  0  0  0  0  0  0  0  0
    5.2917   -3.5375    0.0000 C   0  0  0  0  0  0  0  0  0  0  0  0
    2.4292   -3.5417    0.0000 C   0  0  0  0  0  0  0  0  0  0  0  0
    1.7167   -3.9542    0.0000 N   0  0  0  0  0  0  0  0  0  0  0  0
    2.4292   -2.7167    0.0000 C   0  0  0  0  0  0  0  0  0  0  0  0
    3.1417   -2.3042    0.0000 C   0  0  0  0  0  0  0  0  0  0  0  0
    6.0000   -2.2917    0.0000 C   0  0  0  0  0  0  0  0  0  0  0  0
    0.9667   -3.6250    0.0000 C   0  0  0  0  0  0  0  0  0  0  0  0
    1.6292   -4.7792    0.0000 C   0  0  0  0  0  0  0  0  0  0  0  0
    4.5667   -1.4750    0.0000 O   0  0  0  0  0  0  0  0  0  0  0  0
    3.1500   -4.7792    0.0000 F   0  0  0  0  0  0  0  0  0  0  0  0
    5.9917   -1.4667    0.0000 O   0  0  0  0  0  0  0  0  0  0  0  0
    4.5792   -4.7792    0.0000 O   0  0  0  0  0  0  0  0  0  0  0  0
    0.4167   -4.2375    0.0000 C   0  0  0  0  0  0  0  0  0  0  0  0
    1.7167   -2.3042    0.0000 F   0  0  0  0  0  0  0  0  0  0  0  0
    6.7167   -2.7000    0.0000 O   0  0  0  0  0  0  0  0  0  0  0  0
    0.8250   -4.9542    0.0000 C   0  0  0  0  0  0  0  0  0  0  0  0
   -0.8958   -4.8167    0.0000 N   0  0  0  0  0  0  0  0  0  0  0  0
   -0.4083   -4.1500    0.0000 C   0  0  0  0  0  0  0  0  0  0  0  0
   -1.7125   -4.7292    0.0000 C   0  0  0  0  0  0  0  0  0  0  0  0
    5.2917   -5.1875    0.0000 C   0  0  0  0  0  0  0  0  0  0  0  0
   -2.1958   -5.4000    0.0000 C   0  0  0  0  0  0  0  0  0  0  0  0
  2  4  1  0
  3  6  1  0
  4  7  1  0
  5  2  2  0
  6  1  1  0
  7  1  2  0
  8  5  1  0
  9  8  1  0
 10 11  1  0
 11  3  2  0
 12  1  1  0
 13  9  1  0
 14  9  1  0
 15  6  2  0
 16  5  1  0
 17 12  2  0
 18  4  1  0
 19 13  1  0
 20 10  1  0
 21 12  1  0
 22 14  1  0
 23 24  1  0
 24 19  1  0
 25 23  1  0
 26 18  1  0
 27 25  1  0
  3  2  1  0
 10  8  2  0
 19 22  1  0
M  END

> <chembl_id>
CHEMBL6289

> <chembl_pref_name>
None

$$$$

     RDKit          2D

 29 32  0  0  0  0  0  0  0  0999 V2000
    4.5792   -3.9542    0.0000 N   0  0  0  0  0  0  0  0  0  0  0  0
    5.2875   -2.7042    0.0000 C   0  0  0  0  0  0  0  0  0  0  0  0
    3.8625   -3.5417    0.0000 C   0  0  0  0  0  0  0  0  0  0  0  0
    3.8625   -2.7167    0.0000 C   0  0  0  0  0  0  0  0  0  0  0  0
    4.5792   -4.7792    0.0000 C   0  0  0  0  0  0  0  0  0  0  0  0
    5.2917   -3.5375    0.0000 C   0  0  0  0  0  0  0  0  0  0  0  0
    3.1417   -3.9542    0.0000 C   0  0  0  0  0  0  0  0  0  0  0  0
    4.5667   -2.3000    0.0000 C   0  0  0  0  0  0  0  0  0  0  0  0
    2.4292   -3.5417    0.0000 C   0  0  0  0  0  0  0  0  0  0  0  0
    1.7167   -3.9542    0.0000 N   0  0  0  0  0  0  0  0  0  0  0  0
    4.1667   -5.4917    0.0000 C   0  0  0  0  0  0  0  0  0  0  0  0
    4.9917   -5.4917    0.0000 C   0  0  0  0  0  0  0  0  0  0  0  0
    2.4292   -2.7167    0.0000 C   0  0  0  0  0  0  0  0  0  0  0  0
    3.1417   -2.3042    0.0000 C   0  0  0  0  0  0  0  0  0  0  0  0
    6.0000   -2.2917    0.0000 C   0  0  0  0  0  0  0  0  0  0  0  0
    0.9667   -3.6250    0.0000 C   0  0  0  0  0  0  0  0  0  0  0  0
    1.6292   -4.7792    0.0000 C   0  0  0  0  0  0  0  0  0  0  0  0
    4.5667   -1.4750    0.0000 O   0  0  0  0  0  0  0  0  0  0  0  0
    3.1500   -4.7792    0.0000 F   0  0  0  0  0  0  0  0  0  0  0  0
    5.9917   -1.4667    0.0000 O   0  0  0  0  0  0  0  0  0  0  0  0
    0.4167   -4.2375    0.0000 C   0  0  0  0  0  0  0  0  0  0  0  0
    1.7167   -2.3042    0.0000 F   0  0  0  0  0  0  0  0  0  0  0  0
    6.7167   -2.7000    0.0000 O   0  0  0  0  0  0  0  0  0  0  0  0
    0.8250   -4.9542    0.0000 C   0  0  0  0  0  0  0  0  0  0  0  0
   -0.8958   -4.8167    0.0000 N   0  0  0  0  0  0  0  0  0  0  0  0
    5.7125   -5.9000    0.0000 C   0  0  0  0  0  0  0  0  0  0  0  0
   -0.4083   -4.1500    0.0000 C   0  0  0  0  0  0  0  0  0  0  0  0
   -1.7125   -4.7292    0.0000 C   0  0  0  0  0  0  0  0  0  0  0  0
   -2.1958   -5.4000    0.0000 C   0  0  0  0  0  0  0  0  0  0  0  0
  2  6  2  0
  3  1  1  0
  4  3  1  0
  5  1  1  0
  6  1  1  0
  7  3  2  0
  8  2  1  0
  9  7  1  0
 10  9  1  0
 11  5  1  0
 12  5  1  0
 13  9  2  0
 14  4  2  0
 15  2  1  0
 16 10  1  0
 17 10  1  0
 18  8  2  0
 19  7  1  0
 20 15  2  0
 21 16  1  0
 22 13  1  0
 23 15  1  0
 24 17  1  0
 25 27  1  0
 26 12  1  0
 27 21  1  0
 28 25  1  0
 29 28  1  0
 12 11  1  0
  4  8  1  0
 14 13  1  0
 21 24  1  0
M  END

> <chembl_id>
CHEMBL6282

> <chembl_pref_name>
None

$$$$

     RDKit          2D

 60 60  0  0  1  0  0  0  0  0999 V2000
    7.7792  -10.5167    0.0000 C   0  0  0  0  0  0  0  0  0  0  0  0
   11.6667  -17.2792    0.0000 C   0  0  0  0  0  0  0  0  0  0  0  0
    1.2833   -5.2500    0.0000 C   0  0  0  0  0  0  0  0  0  0  0  0
    3.8917   -3.7542    0.0000 C   0  0  0  0  0  0  0  0  0  0  0  0
    5.1833   -7.5083    0.0000 C   0  0  0  0  0  0  0  0  0  0  0  0
    9.0750  -14.2708    0.0000 C   0  0  0  0  0  0  0  0  0  0  0  0
    6.4833   -8.2625    0.0000 N   0  0  0  0  0  0  0  0  0  0  0  0
   11.6667  -18.7792    0.0000 N   0  0  0  0  0  0  0  0  0  0  0  0
    6.4792   -9.7625    0.0000 C   0  0  0  0  0  0  0  0  0  0  0  0
   -1.3292   -8.2417    0.0000 C   0  0  0  0  0  0  0  0  0  0  0  0
    1.2917   -3.7458    0.0000 N   0  0  0  0  0  0  0  0  0  0  0  0
   10.3708  -15.0250    0.0000 N   0  0  0  0  0  0  0  0  0  0  0  0
   12.9625  -19.5333    0.0000 C   0  0  0  0  0  0  0  0  0  0  0  0
   -0.0250   -7.4958    0.0000 N   0  0  0  0  0  0  0  0  0  0  0  0
    7.7792  -12.0167    0.0000 N   0  0  0  0  0  0  0  0  0  0  0  0
    3.8875   -5.2542    0.0000 N   0  0  0  0  0  0  0  0  0  0  0  0
    2.5917   -3.0000    0.0000 C   0  0  0  0  0  0  0  0  0  0  0  0
   10.3708  -16.5250    0.0000 C   0  0  0  0  0  0  0  0  0  0  0  0
   -0.0208   -5.9917    0.0000 C   0  0  0  0  0  0  0  0  0  0  0  0
   12.9625  -21.0333    0.0000 C   0  0  0  0  0  0  0  0  0  0  0  0
    5.1875   -6.0083    0.0000 C   0  0  0  0  0  0  0  0  0  0  0  0
    9.0750  -12.7708    0.0000 C   0  0  0  0  0  0  0  0  0  0  0  0
    8.8208   -9.9167    0.0000 O   0  0  0  0  0  0  0  0  0  0  0  0
    4.9333   -3.1583    0.0000 O   0  0  0  0  0  0  0  0  0  0  0  0
    2.3208   -5.8542    0.0000 O   0  0  0  0  0  0  0  0  0  0  0  0
   12.7083  -16.6792    0.0000 O   0  0  0  0  0  0  0  0  0  0  0  0
    8.0333  -14.8708    0.0000 O   0  0  0  0  0  0  0  0  0  0  0  0
    4.1458   -8.1083    0.0000 O   0  0  0  0  0  0  0  0  0  0  0  0
   -2.3667   -7.6375    0.0000 O   0  0  0  0  0  0  0  0  0  0  0  0
    2.5958   -1.5000    0.0000 C   0  0  0  0  0  0  0  0  0  0  0  0
   14.0000  -21.6333    0.0000 O   0  0  0  0  0  0  0  0  0  0  0  0
   -1.3167   -5.2417    0.0000 C   0  0  0  0  0  0  0  0  0  0  0  0
    9.0667  -17.2708    0.0000 C   0  0  0  0  0  0  0  0  0  0  0  0
   -1.3333   -9.7417    0.0000 C   0  0  0  0  0  0  0  0  0  0  0  0
   11.9208  -21.6333    0.0000 N   0  0  0  0  0  0  0  0  0  0  0  0
    1.2958   -0.7500    0.0000 C   0  0  0  0  0  0  0  0  0  0  0  0
   -1.3000    0.7500    0.0000 C   0  0  0  0  0  0  0  0  0  0  0  0
   -2.3750  -10.3375    0.0000 N   0  0  0  0  0  0  0  0  0  0  0  0
    5.1792  -10.5083    0.0000 C   0  0  0  0  0  0  0  0  0  0  0  0
   14.2625  -18.7833    0.0000 C   0  0  0  0  0  0  0  0  0  0  0  0
    1.2958    0.7500    0.0000 C   0  0  0  0  0  0  0  0  0  0  0  0
    0.0000   -1.5000    0.0000 C   0  0  0  0  0  0  0  0  0  0  0  0
   12.7125   -7.6667    0.0000 N   0  0  0  0  0  0  0  0  0  0  0  0
    0.0000    1.5000    0.0000 C   0  0  0  0  0  0  0  0  0  0  0  0
   -1.3000   -0.7500    0.0000 C   0  0  0  0  0  0  0  0  0  0  0  0
   -2.3417    1.3500    0.0000 O   0  0  0  0  0  0  0  0  0  0  0  0
   14.2625  -17.5833    0.0000 O   0  0  0  0  0  0  0  0  0  0  0  0
    4.1417   -9.9042    0.0000 O   0  0  0  0  0  0  0  0  0  0  0  0
    7.7708  -16.5167    0.0000 C   0  0  0  0  0  0  0  0  0  0  0  0
   -2.6208   -5.9875    0.0000 C   0  0  0  0  0  0  0  0  0  0  0  0
   10.3750  -12.0208    0.0000 C   0  0  0  0  0  0  0  0  0  0  0  0
    6.2292   -5.4125    0.0000 C   0  0  0  0  0  0  0  0  0  0  0  0
   11.6750   -8.2667    0.0000 C   0  0  0  0  0  0  0  0  0  0  0  0
   -0.2958  -10.3458    0.0000 C   0  0  0  0  0  0  0  0  0  0  0  0
   10.3750  -10.5208    0.0000 C   0  0  0  0  0  0  0  0  0  0  0  0
   11.6750   -9.7667    0.0000 C   0  0  0  0  0  0  0  0  0  0  0  0
   -2.6208   -7.1875    0.0000 C   0  0  0  0  0  0  0  0  0  0  0  0
    6.7292  -17.1125    0.0000 C   0  0  0  0  0  0  0  0  0  0  0  0
    7.7750  -15.3167    0.0000 C   0  0  0  0  0  0  0  0  0  0  0  0
   -3.6583   -5.3833    0.0000 C   0  0  0  0  0  0  0  0  0  0  0  0
  2 18  1  0
  3 11  1  0
  4 16  1  0
  5  7  1  0
  6 22  1  0
  9  7  1  6
  8  2  1  0
  9  1  1  0
 10 14  1  0
 17 11  1  1
 12  6  1  0
 13  8  1  1
 14 19  1  0
 15  1  1  0
 16 21  1  0
 17  4  1  0
 18 12  1  6
 19  3  1  0
 20 13  1  0
 21  5  1  0
 22 15  1  1
 23  1  2  0
 24  4  2  0
 25  3  2  0
 26  2  2  0
 27  6  2  0
 28  5  2  0
 29 10  2  0
 30 17  1  0
 31 20  2  0
 19 32  1  1
 33 18  1  0
 34 10  1  0
 35 20  1  0
 36 30  1  0
 37 45  1  0
 38 34  1  0
 39  9  1  0
 40 13  1  0
 41 36  2  0
 42 36  1  0
 43 53  1  0
 44 41  1  0
 45 42  2  0
 46 37  1  0
 47 40  1  0
 48 39  1  0
 49 33  1  0
 50 32  1  0
 51 22  1  0
 21 52  1  1
 53 56  1  0
 34 54  1  6
 55 51  1  0
 56 55  1  0
 57 50  1  0
 58 49  1  0
 59 49  1  0
 60 50  1  0
 37 44  2  0
M  END

> <chembl_id>
CHEMBL448105

> <chembl_pref_name>
None

$$$$

     RDKit          2D

 43 45  0  0  0  0  0  0  0  0999 V2000
   -6.5903   -2.4293    0.0000 C   0  0  0  0  0  0  0  0  0  0  0  0
   -8.0103   -2.0488    0.0000 N   0  0  0  0  0  0  0  0  0  0  0  0
   -7.2034   -1.8773    0.0000 C   0  0  0  0  0  0  0  0  0  0  0  0
   -7.1171   -1.0568    0.0000 N   0  0  0  0  0  0  0  0  0  0  0  0
   -7.8708   -0.7213    0.0000 C   0  0  0  0  0  0  0  0  0  0  0  0
   -8.4228   -1.3344    0.0000 C   0  0  0  0  0  0  0  0  0  0  0  0
   -6.4027   -0.6443    0.0000 C   0  0  0  0  0  0  0  0  0  0  0  0
   -5.6882   -1.0568    0.0000 C   0  0  0  0  0  0  0  0  0  0  0  0
   -4.9737   -0.6443    0.0000 C   0  0  0  0  0  0  0  0  0  0  0  0
   -4.2592   -1.0568    0.0000 C   0  0  0  0  0  0  0  0  0  0  0  0
   -3.5448   -0.6443    0.0000 C   0  0  0  0  0  0  0  0  0  0  0  0
   -2.8303   -1.0568    0.0000 C   0  0  0  0  0  0  0  0  0  0  0  0
   -2.1158   -0.6443    0.0000 C   0  0  0  0  0  0  0  0  0  0  0  0
   -2.1158    0.1807    0.0000 C   0  0  0  0  0  0  0  0  0  0  0  0
   -2.8303    0.5932    0.0000 C   0  0  0  0  0  0  0  0  0  0  0  0
   -3.5448    0.1807    0.0000 C   0  0  0  0  0  0  0  0  0  0  0  0
   -1.4014    0.5932    0.0000 C   0  0  0  0  0  0  0  0  0  0  0  0
   -0.6869    0.1807    0.0000 C   0  0  0  0  0  0  0  0  0  0  0  0
   -0.6869   -0.6443    0.0000 O   0  0  0  0  0  0  0  0  0  0  0  0
    0.0276    0.5932    0.0000 N   0  0  0  0  0  0  0  0  0  0  0  0
    0.7420    0.1807    0.0000 C   0  0  0  0  0  0  0  0  0  0  0  0
    1.4565    0.5932    0.0000 C   0  0  0  0  0  0  0  0  0  0  0  0
    1.4565    1.4182    0.0000 O   0  0  0  0  0  0  0  0  0  0  0  0
    0.7420   -0.6443    0.0000 C   0  0  0  0  0  0  0  0  0  0  0  0
    1.4565   -1.0568    0.0000 O   0  0  0  0  0  0  0  0  0  0  0  0
    2.1710    0.1807    0.0000 N   0  0  0  0  0  0  0  0  0  0  0  0
    2.8855    0.5932    0.0000 C   0  0  0  0  0  0  0  0  0  0  0  0
    3.5999    0.1807    0.0000 C   0  0  0  0  0  0  0  0  0  0  0  0
    3.5999   -0.6443    0.0000 O   0  0  0  0  0  0  0  0  0  0  0  0
    2.8855    1.4182    0.0000 C   0  0  0  0  0  0  0  0  0  0  0  0
    2.1710    1.8307    0.0000 C   0  0  0  0  0  0  0  0  0  0  0  0
    2.1710    2.6557    0.0000 C   0  0  0  0  0  0  0  0  0  0  0  0
    1.4565    3.0682    0.0000 C   0  0  0  0  0  0  0  0  0  0  0  0
    1.4565    3.8932    0.0000 N   0  0  0  0  0  0  0  0  0  0  0  0
    4.3144    0.5932    0.0000 N   0  0  0  0  0  0  0  0  0  0  0  0
    5.0289    0.1807    0.0000 C   0  0  0  0  0  0  0  0  0  0  0  0
    5.7433    0.5932    0.0000 C   0  0  0  0  0  0  0  0  0  0  0  0
    6.4578    0.1807    0.0000 C   0  0  0  0  0  0  0  0  0  0  0  0
    7.1723    0.5932    0.0000 C   0  0  0  0  0  0  0  0  0  0  0  0
    7.8868    0.1807    0.0000 C   0  0  0  0  0  0  0  0  0  0  0  0
    7.8868   -0.6443    0.0000 C   0  0  0  0  0  0  0  0  0  0  0  0
    7.1723   -1.0568    0.0000 C   0  0  0  0  0  0  0  0  0  0  0  0
    6.4578   -0.6443    0.0000 C   0  0  0  0  0  0  0  0  0  0  0  0
  3  1  1  0
  3  2  2  0
  6  2  1  0
  3  4  1  0
  5  4  1  0
  7  4  1  0
  6  5  2  0
  8  7  1  0
  9  8  1  0
 10  9  1  0
 11 10  1  0
 12 11  2  0
 11 16  1  0
 13 12  1  0
 14 13  2  0
 14 15  1  0
 14 17  1  0
 16 15  2  0
 17 18  1  0
 18 19  2  0
 18 20  1  0
 21 20  1  6
 21 22  1  0
 21 24  1  0
 22 23  2  0
 22 26  1  0
 24 25  1  0
 27 26  1  1
 27 28  1  0
 27 30  1  0
 28 29  2  0
 28 35  1  0
 30 31  1  0
 32 31  1  0
 32 33  1  0
 33 34  1  0
 36 35  1  0
 36 37  1  0
 37 38  1  0
 38 39  1  0
 43 38  1  0
 40 39  1  0
 40 41  1  0
 42 41  1  0
 43 42  1  0
M  END

> <chembl_id>
CHEMBL6269

> <chembl_pref_name>
SC-58272

$$$$

     RDKit          2D

 21 20  0  0  0  0  0  0  0  0999 V2000
    5.0792    2.1583    0.0000 Cl  0  0  0  0  0  0  0  0  0  0  0  0
   12.2250    0.2000    0.0000 N   0  0  0  0  0  0  0  0  0  0  0  0
    8.6375   -1.0667    0.0000 C   0  0  0  0  0  0  0  0  0  0  0  0
    7.8917    0.9833    0.0000 C   0  0  0  0  0  0  0  0  0  0  0  0
    8.6042    1.4083    0.0000 C   0  0  0  0  0  0  0  0  0  0  0  0
   11.5042   -0.2167    0.0000 C   0  0  0  0  0  0  0  0  0  0  0  0
   12.9417   -0.2125    0.0000 O   0  0  0  0  0  0  0  0  0  0  0  0
    9.3542   -1.4750    0.0000 N   0  0  0  0  0  0  0  0  0  0  0  0
    7.1792    1.3875    0.0000 N   0  0  0  0  0  0  0  0  0  0  0  0
    8.6250   -0.2417    0.0000 N   0  0  0  0  0  0  0  0  0  0  0  0
   12.2167    1.0250    0.0000 O   0  0  0  0  0  0  0  0  0  0  0  0
    7.9042    0.1583    0.0000 C   0  0  0  0  0  0  0  0  0  0  0  0
    7.9250   -1.4917    0.0000 O   0  0  0  0  0  0  0  0  0  0  0  0
    8.5917    2.2333    0.0000 O   0  0  0  0  0  0  0  0  0  0  0  0
   10.7875    0.1958    0.0000 C   0  0  0  0  0  0  0  0  0  0  0  0
   11.5042   -1.0500    0.0000 C   0  0  0  0  0  0  0  0  0  0  0  0
   10.0750   -1.0500    0.0000 C   0  0  0  0  0  0  0  0  0  0  0  0
    9.3250    1.0000    0.0000 O   0  0  0  0  0  0  0  0  0  0  0  0
   10.7875   -1.4625    0.0000 C   0  0  0  0  0  0  0  0  0  0  0  0
   10.0750   -0.2167    0.0000 C   0  0  0  0  0  0  0  0  0  0  0  0
   10.0292    1.4208    0.0000 C   0  0  0  0  0  0  0  0  0  0  0  0
  3  8  1  0
  4 12  1  6
  5  4  1  0
  6  2  1  0
  7  2  1  0
  8 17  1  0
  9  4  1  0
 10  3  1  0
 11  2  2  0
 12 10  1  0
 13  3  2  0
 14  5  2  0
 15  6  2  0
 16  6  1  0
 17 20  2  0
 18  5  1  0
 19 16  2  0
 20 15  1  0
 21 18  1  0
 19 17  1  0
M  CHG  2   2   1   7  -1
M  END

> <chembl_id>
CHEMBL6300

> <chembl_pref_name>
None

$$$$

     RDKit          2D

 22 23  0  0  1  0  0  0  0  0999 V2000
    7.7125   -5.3500    0.0000 S   0  0  0  0  0  0  0  0  0  0  0  0
    7.2375   -6.5917    0.0000 N   0  0  0  0  0  0  0  0  0  0  0  0
    8.3542   -5.8667    0.0000 C   0  0  0  0  0  0  0  0  0  0  0  0
    7.0250   -5.8000    0.0000 C   0  0  0  0  0  0  0  0  0  0  0  0
    8.0542   -6.6292    0.0000 C   0  0  0  0  0  0  0  0  0  0  0  0
    6.4417   -6.8042    0.0000 C   0  0  0  0  0  0  0  0  0  0  0  0
    6.2292   -6.0125    0.0000 C   0  0  0  0  0  0  0  0  0  0  0  0
    8.4667   -7.3417    0.0000 C   0  0  0  0  0  0  0  0  0  0  0  0
    7.1250   -4.7625    0.0000 O   0  0  0  0  0  0  0  0  0  0  0  0
    8.2917   -4.7625    0.0000 O   0  0  0  0  0  0  0  0  0  0  0  0
    6.0250   -7.5167    0.0000 O   0  0  0  0  0  0  0  0  0  0  0  0
    4.8000   -6.0125    0.0000 C   0  0  0  0  0  0  0  0  0  0  0  0
    9.2917   -7.3417    0.0000 O   0  0  0  0  0  0  0  0  0  0  0  0
    4.0875   -5.6000    0.0000 C   0  0  0  0  0  0  0  0  0  0  0  0
    5.5167   -5.6000    0.0000 C   0  0  0  0  0  0  0  0  0  0  0  0
    9.0667   -5.4500    0.0000 C   0  0  0  0  0  0  0  0  0  0  0  0
    8.9375   -6.4500    0.0000 C   0  0  0  0  0  0  0  0  0  0  0  0
    3.3750   -6.0125    0.0000 C   0  0  0  0  0  0  0  0  0  0  0  0
    2.6542   -5.6000    0.0000 O   0  0  0  0  0  0  0  0  0  0  0  0
    8.0500   -8.0542    0.0000 O   0  0  0  0  0  0  0  0  0  0  0  0
    3.3750   -6.8375    0.0000 C   0  0  0  0  0  0  0  0  0  0  0  0
    6.4375   -5.2125    0.0000 H   0  0  0  0  0  0  0  0  0  0  0  0
  2  4  1  0
  3  1  1  0
  4  1  1  0
  5  3  1  0
  6  7  1  0
  7  4  1  0
  5  8  1  6
  9  1  2  0
 10  1  2  0
 11  6  2  0
 12 15  1  0
 13  8  2  0
 14 12  2  0
 15  7  1  0
 16  3  1  0
 17  3  1  0
 18 14  1  0
 19 18  2  0
 20  8  1  0
 21 18  1  0
  4 22  1  6
  2  5  1  0
  2  6  1  0
M  END

> <chembl_id>
CHEMBL6301

> <chembl_pref_name>
None

$$$$

     RDKit          2D

 23 24  0  0  1  0  0  0  0  0999 V2000
    7.7125   -5.3500    0.0000 S   0  0  0  0  0  0  0  0  0  0  0  0
    7.2375   -6.5917    0.0000 N   0  0  0  0  0  0  0  0  0  0  0  0
    8.3542   -5.8667    0.0000 C   0  0  0  0  0  0  0  0  0  0  0  0
    7.0250   -5.8000    0.0000 C   0  0  0  0  0  0  0  0  0  0  0  0
    8.0542   -6.6292    0.0000 C   0  0  0  0  0  0  0  0  0  0  0  0
    6.4417   -6.8042    0.0000 C   0  0  0  0  0  0  0  0  0  0  0  0
    6.2292   -6.0125    0.0000 C   0  0  0  0  0  0  0  0  0  0  0  0
    8.4667   -7.3417    0.0000 C   0  0  0  0  0  0  0  0  0  0  0  0
    7.1250   -4.7625    0.0000 O   0  0  0  0  0  0  0  0  0  0  0  0
    8.2917   -4.7625    0.0000 O   0  0  0  0  0  0  0  0  0  0  0  0
    6.0250   -7.5167    0.0000 O   0  0  0  0  0  0  0  0  0  0  0  0
    3.3750   -6.0125    0.0000 C   0  0  0  0  0  0  0  0  0  0  0  0
    4.8000   -6.0125    0.0000 C   0  0  0  0  0  0  0  0  0  0  0  0
    4.0875   -5.6000    0.0000 C   0  0  0  0  0  0  0  0  0  0  0  0
    9.2917   -7.3417    0.0000 O   0  0  0  0  0  0  0  0  0  0  0  0
    5.5167   -5.6000    0.0000 C   0  0  0  0  0  0  0  0  0  0  0  0
    2.6542   -5.6000    0.0000 O   0  0  0  0  0  0  0  0  0  0  0  0
    8.9375   -6.4500    0.0000 C   0  0  0  0  0  0  0  0  0  0  0  0
    9.0667   -5.4500    0.0000 C   0  0  0  0  0  0  0  0  0  0  0  0
    8.0500   -8.0542    0.0000 O   0  0  0  0  0  0  0  0  0  0  0  0
    3.3750   -6.8375    0.0000 O   0  0  0  0  0  0  0  0  0  0  0  0
    2.6542   -7.2500    0.0000 C   0  0  0  0  0  0  0  0  0  0  0  0
    6.4375   -5.2125    0.0000 H   0  0  0  0  0  0  0  0  0  0  0  0
  2  4  1  0
  3  1  1  0
  4  1  1  0
  5  3  1  0
  6  7  1  0
  7  4  1  0
  5  8  1  6
  9  1  2  0
 10  1  2  0
 11  6  2  0
 12 14  1  0
 13 16  1  0
 14 13  2  0
 15  8  2  0
 16  7  1  0
 17 12  2  0
 18  3  1  0
 19  3  1  0
 20  8  1  0
 21 12  1  0
 22 21  1  0
  4 23  1  6
  2  5  1  0
  2  6  1  0
M  END

> <chembl_id>
CHEMBL6309

> <chembl_pref_name>
None

$$$$

     RDKit          2D

 28 30  0  0  0  0  0  0  0  0999 V2000
    5.2875   -2.7042    0.0000 C   0  0  0  0  0  0  0  0  0  0  0  0
    4.5792   -3.9542    0.0000 N   0  0  0  0  0  0  0  0  0  0  0  0
    3.8625   -3.5417    0.0000 C   0  0  0  0  0  0  0  0  0  0  0  0
    3.8625   -2.7167    0.0000 C   0  0  0  0  0  0  0  0  0  0  0  0
    3.1417   -3.9542    0.0000 C   0  0  0  0  0  0  0  0  0  0  0  0
    5.2917   -3.5375    0.0000 C   0  0  0  0  0  0  0  0  0  0  0  0
    4.5667   -2.3000    0.0000 C   0  0  0  0  0  0  0  0  0  0  0  0
    2.4292   -3.5417    0.0000 C   0  0  0  0  0  0  0  0  0  0  0  0
    1.7167   -3.9542    0.0000 N   0  0  0  0  0  0  0  0  0  0  0  0
    2.4292   -2.7167    0.0000 C   0  0  0  0  0  0  0  0  0  0  0  0
    3.1417   -2.3042    0.0000 C   0  0  0  0  0  0  0  0  0  0  0  0
    6.0000   -2.2917    0.0000 C   0  0  0  0  0  0  0  0  0  0  0  0
    0.9667   -3.6250    0.0000 C   0  0  0  0  0  0  0  0  0  0  0  0
    1.6292   -4.7792    0.0000 C   0  0  0  0  0  0  0  0  0  0  0  0
    4.5667   -1.4750    0.0000 O   0  0  0  0  0  0  0  0  0  0  0  0
    4.5792   -4.7792    0.0000 C   0  0  0  0  0  0  0  0  0  0  0  0
    3.1500   -4.7792    0.0000 F   0  0  0  0  0  0  0  0  0  0  0  0
    5.9917   -1.4667    0.0000 O   0  0  0  0  0  0  0  0  0  0  0  0
    0.4167   -4.2375    0.0000 C   0  0  0  0  0  0  0  0  0  0  0  0
    1.7167   -2.3042    0.0000 F   0  0  0  0  0  0  0  0  0  0  0  0
    6.7167   -2.7000    0.0000 O   0  0  0  0  0  0  0  0  0  0  0  0
    0.8250   -4.9542    0.0000 C   0  0  0  0  0  0  0  0  0  0  0  0
   -0.8958   -4.8167    0.0000 N   0  0  0  0  0  0  0  0  0  0  0  0
   -0.4083   -4.1500    0.0000 C   0  0  0  0  0  0  0  0  0  0  0  0
   -1.7125   -4.7292    0.0000 C   0  0  0  0  0  0  0  0  0  0  0  0
    3.8667   -5.1917    0.0000 C   0  0  0  0  0  0  0  0  0  0  0  0
    5.2917   -5.1875    0.0000 C   0  0  0  0  0  0  0  0  0  0  0  0
   -2.1958   -5.4000    0.0000 C   0  0  0  0  0  0  0  0  0  0  0  0
  2  6  1  0
  3  4  1  0
  4  7  1  0
  5  3  2  0
  6  1  2  0
  7  1  1  0
  8 10  2  0
  9  8  1  0
 10 11  1  0
 11  4  2  0
 12  1  1  0
 13  9  1  0
 14  9  1  0
 15  7  2  0
 16  2  1  0
 17  5  1  0
 18 12  2  0
 19 13  1  0
 20 10  1  0
 21 12  1  0
 22 14  1  0
 23 24  1  0
 24 19  1  0
 25 23  1  0
 26 16  1  0
 27 16  1  0
 28 25  1  0
  3  2  1  0
  5  8  1  0
 19 22  1  0
M  END

> <chembl_id>
CHEMBL265664

> <chembl_pref_name>
None

$$$$

     RDKit          2D

 30 33  0  0  0  0  0  0  0  0999 V2000
    5.4125   -2.6750    0.0000 C   0  0  0  0  0  0  0  0  0  0  0  0
    4.7042   -3.9167    0.0000 N   0  0  0  0  0  0  0  0  0  0  0  0
    3.9875   -3.5042    0.0000 C   0  0  0  0  0  0  0  0  0  0  0  0
    3.9875   -2.6792    0.0000 C   0  0  0  0  0  0  0  0  0  0  0  0
    3.2667   -3.9250    0.0000 C   0  0  0  0  0  0  0  0  0  0  0  0
    5.4167   -3.5042    0.0000 C   0  0  0  0  0  0  0  0  0  0  0  0
    4.6917   -2.2667    0.0000 C   0  0  0  0  0  0  0  0  0  0  0  0
    2.5542   -3.5125    0.0000 C   0  0  0  0  0  0  0  0  0  0  0  0
    1.8417   -3.9250    0.0000 N   0  0  0  0  0  0  0  0  0  0  0  0
    2.5542   -2.6875    0.0000 C   0  0  0  0  0  0  0  0  0  0  0  0
    3.2667   -2.2667    0.0000 C   0  0  0  0  0  0  0  0  0  0  0  0
    6.1250   -2.2542    0.0000 C   0  0  0  0  0  0  0  0  0  0  0  0
    1.0917   -3.5917    0.0000 C   0  0  0  0  0  0  0  0  0  0  0  0
    4.7042   -4.7417    0.0000 C   0  0  0  0  0  0  0  0  0  0  0  0
    1.7542   -4.7500    0.0000 C   0  0  0  0  0  0  0  0  0  0  0  0
    4.6917   -1.4417    0.0000 O   0  0  0  0  0  0  0  0  0  0  0  0
    3.2750   -4.7500    0.0000 F   0  0  0  0  0  0  0  0  0  0  0  0
    6.1167   -1.4292    0.0000 O   0  0  0  0  0  0  0  0  0  0  0  0
    0.5417   -4.2042    0.0000 C   0  0  0  0  0  0  0  0  0  0  0  0
    1.8417   -2.2750    0.0000 F   0  0  0  0  0  0  0  0  0  0  0  0
    6.8417   -2.6667    0.0000 O   0  0  0  0  0  0  0  0  0  0  0  0
    0.9500   -4.9167    0.0000 C   0  0  0  0  0  0  0  0  0  0  0  0
   -0.7708   -4.7792    0.0000 N   0  0  0  0  0  0  0  0  0  0  0  0
   -0.2833   -4.1167    0.0000 C   0  0  0  0  0  0  0  0  0  0  0  0
    4.0417   -5.2292    0.0000 C   0  0  0  0  0  0  0  0  0  0  0  0
    5.3750   -5.2292    0.0000 C   0  0  0  0  0  0  0  0  0  0  0  0
   -1.5875   -4.6917    0.0000 C   0  0  0  0  0  0  0  0  0  0  0  0
   -2.0708   -5.3667    0.0000 C   0  0  0  0  0  0  0  0  0  0  0  0
    5.1167   -6.0125    0.0000 C   0  0  0  0  0  0  0  0  0  0  0  0
    4.2917   -6.0125    0.0000 C   0  0  0  0  0  0  0  0  0  0  0  0
  2  6  1  0
  3  4  1  0
  4  7  1  0
  5  3  2  0
  6  1  2  0
  7  1  1  0
  8 10  2  0
  9  8  1  0
 10 11  1  0
 11  4  2  0
 12  1  1  0
 13  9  1  0
 14  2  1  0
 15  9  1  0
 16  7  2  0
 17  5  1  0
 18 12  2  0
 19 13  1  0
 20 10  1  0
 21 12  1  0
 22 15  1  0
 23 24  1  0
 24 19  1  0
 25 14  1  0
 26 14  1  0
 27 23  1  0
 28 27  1  0
 29 26  1  0
 30 25  1  0
  3  2  1  0
  5  8  1  0
 30 29  1  0
 19 22  1  0
M  END

> <chembl_id>
CHEMBL6265

> <chembl_pref_name>
None

$$$$

     RDKit          2D

 32 35  0  0  0  0  0  0  0  0999 V2000
    4.7042   -3.9167    0.0000 N   0  0  0  0  0  0  0  0  0  0  0  0
    5.4125   -2.6750    0.0000 C   0  0  0  0  0  0  0  0  0  0  0  0
    3.9875   -3.5042    0.0000 C   0  0  0  0  0  0  0  0  0  0  0  0
    3.9875   -2.6792    0.0000 C   0  0  0  0  0  0  0  0  0  0  0  0
    3.2667   -3.9250    0.0000 C   0  0  0  0  0  0  0  0  0  0  0  0
    5.4167   -3.5042    0.0000 C   0  0  0  0  0  0  0  0  0  0  0  0
    4.6917   -2.2667    0.0000 C   0  0  0  0  0  0  0  0  0  0  0  0
    2.5542   -3.5125    0.0000 C   0  0  0  0  0  0  0  0  0  0  0  0
    1.8417   -3.9250    0.0000 N   0  0  0  0  0  0  0  0  0  0  0  0
    2.5542   -2.6875    0.0000 C   0  0  0  0  0  0  0  0  0  0  0  0
    3.2667   -2.2667    0.0000 C   0  0  0  0  0  0  0  0  0  0  0  0
    6.1250   -2.2542    0.0000 C   0  0  0  0  0  0  0  0  0  0  0  0
    4.7042   -4.7417    0.0000 C   0  0  0  0  0  0  0  0  0  0  0  0
    1.0917   -3.5917    0.0000 C   0  0  0  0  0  0  0  0  0  0  0  0
    1.7542   -4.7500    0.0000 C   0  0  0  0  0  0  0  0  0  0  0  0
    4.6917   -1.4417    0.0000 O   0  0  0  0  0  0  0  0  0  0  0  0
    3.2750   -4.7500    0.0000 F   0  0  0  0  0  0  0  0  0  0  0  0
    6.1167   -1.4292    0.0000 O   0  0  0  0  0  0  0  0  0  0  0  0
    0.5417   -4.2042    0.0000 C   0  0  0  0  0  0  0  0  0  0  0  0
    1.8417   -2.2750    0.0000 F   0  0  0  0  0  0  0  0  0  0  0  0
    3.9875   -5.1542    0.0000 C   0  0  0  0  0  0  0  0  0  0  0  0
    5.4167   -5.1500    0.0000 C   0  0  0  0  0  0  0  0  0  0  0  0
    6.8417   -2.6667    0.0000 O   0  0  0  0  0  0  0  0  0  0  0  0
    0.9500   -4.9167    0.0000 C   0  0  0  0  0  0  0  0  0  0  0  0
    4.7042   -6.3917    0.0000 C   0  0  0  0  0  0  0  0  0  0  0  0
    5.4167   -5.9667    0.0000 C   0  0  0  0  0  0  0  0  0  0  0  0
    3.9875   -5.9792    0.0000 C   0  0  0  0  0  0  0  0  0  0  0  0
   -0.7708   -4.7792    0.0000 N   0  0  0  0  0  0  0  0  0  0  0  0
    4.7042   -7.2167    0.0000 F   0  0  0  0  0  0  0  0  0  0  0  0
   -0.2833   -4.1167    0.0000 C   0  0  0  0  0  0  0  0  0  0  0  0
   -1.5875   -4.6917    0.0000 C   0  0  0  0  0  0  0  0  0  0  0  0
   -2.0708   -5.3667    0.0000 C   0  0  0  0  0  0  0  0  0  0  0  0
  2  6  2  0
  3  1  1  0
  4  3  1  0
  5  3  2  0
  6  1  1  0
  7  2  1  0
  8  5  1  0
  9  8  1  0
 10  8  2  0
 11  4  2  0
 12  2  1  0
 13  1  1  0
 14  9  1  0
 15  9  1  0
 16  7  2  0
 17  5  1  0
 18 12  2  0
 19 14  1  0
 20 10  1  0
 21 13  2  0
 22 13  1  0
 23 12  1  0
 24 15  1  0
 25 26  1  0
 26 22  2  0
 27 21  1  0
 28 30  1  0
 29 25  1  0
 30 19  1  0
 31 28  1  0
 32 31  1  0
 27 25  2  0
  4  7  1  0
 11 10  1  0
 19 24  1  0
M  END

> <chembl_id>
CHEMBL268887

> <chembl_pref_name>
None

$$$$

     RDKit          2D

 29 32  0  0  0  0  0  0  0  0999 V2000
   -1.7985   -1.2091    0.0000 C   0  0  0  0  0  0  0  0  0  0  0  0
   -1.0840    0.0284    0.0000 N   0  0  0  0  0  0  0  0  0  0  0  0
   -0.3696   -1.2091    0.0000 C   0  0  0  0  0  0  0  0  0  0  0  0
   -0.3696   -0.3841    0.0000 C   0  0  0  0  0  0  0  0  0  0  0  0
   -1.0840   -1.6216    0.0000 C   0  0  0  0  0  0  0  0  0  0  0  0
   -1.7985   -0.3841    0.0000 C   0  0  0  0  0  0  0  0  0  0  0  0
    0.3449    0.0284    0.0000 C   0  0  0  0  0  0  0  0  0  0  0  0
    1.0594   -0.3841    0.0000 C   0  0  0  0  0  0  0  0  0  0  0  0
    0.3449   -1.6216    0.0000 C   0  0  0  0  0  0  0  0  0  0  0  0
    1.7739    0.0284    0.0000 N   0  0  0  0  0  0  0  0  0  0  0  0
   -2.5130   -1.6216    0.0000 C   0  0  0  0  0  0  0  0  0  0  0  0
    1.0594   -1.2091    0.0000 C   0  0  0  0  0  0  0  0  0  0  0  0
   -1.0840    0.8534    0.0000 C   0  0  0  0  0  0  0  0  0  0  0  0
    3.2028    0.8534    0.0000 N   0  0  0  0  0  0  0  0  0  0  0  0
   -1.0840   -2.4466    0.0000 O   0  0  0  0  0  0  0  0  0  0  0  0
    1.7739    0.8534    0.0000 C   0  0  0  0  0  0  0  0  0  0  0  0
    2.4883   -0.3841    0.0000 C   0  0  0  0  0  0  0  0  0  0  0  0
   -3.2274   -1.2091    0.0000 O   0  0  0  0  0  0  0  0  0  0  0  0
   -1.7985    1.2659    0.0000 C   0  0  0  0  0  0  0  0  0  0  0  0
   -0.3696    1.2659    0.0000 C   0  0  0  0  0  0  0  0  0  0  0  0
    3.2028    0.0284    0.0000 C   0  0  0  0  0  0  0  0  0  0  0  0
    2.4883    1.2659    0.0000 C   0  0  0  0  0  0  0  0  0  0  0  0
    1.7739   -1.6216    0.0000 F   0  0  0  0  0  0  0  0  0  0  0  0
   -2.5130   -2.4466    0.0000 O   0  0  0  0  0  0  0  0  0  0  0  0
   -1.0840    2.5034    0.0000 C   0  0  0  0  0  0  0  0  0  0  0  0
   -0.3696    2.0909    0.0000 C   0  0  0  0  0  0  0  0  0  0  0  0
   -1.7985    2.0909    0.0000 C   0  0  0  0  0  0  0  0  0  0  0  0
   -1.0840    3.3284    0.0000 F   0  0  0  0  0  0  0  0  0  0  0  0
    3.9173    1.2659    0.0000 C   0  0  0  0  0  0  0  0  0  0  0  0
  2  4  1  0
  3  4  2  0
  1  5  1  0
  3  5  1  0
  1  6  2  0
  2  6  1  0
  4  7  1  0
  7  8  2  0
  3  9  1  0
  8 10  1  0
  1 11  1  0
  8 12  1  0
  9 12  2  0
  2 13  1  0
  5 15  2  0
 10 16  1  0
 10 17  1  0
 11 18  2  0
 13 19  1  0
 13 20  2  0
 14 21  1  0
 17 21  1  0
 14 22  1  0
 16 22  1  0
 12 23  1  0
 11 24  1  0
 20 26  1  0
 25 26  2  0
 19 27  2  0
 25 27  1  0
 25 28  1  0
 14 29  1  0
M  END

> <chembl_id>
CHEMBL6259

> <chembl_pref_name>
DIFLOXACIN

$$$$

     RDKit          2D

 20 22  0  0  1  0  0  0  0  0999 V2000
    1.9413   -0.8879    0.0000 C   0  0  0  0  0  0  0  0  0  0  0  0
    0.7500   -1.0323    0.0000 C   0  0  0  0  0  0  0  0  0  0  0  0
    0.1233   -2.3813    0.0000 C   0  0  0  0  0  0  0  0  0  0  0  0
   -1.3692   -2.5388    0.0000 N   0  0  0  0  0  0  0  0  0  0  0  0
   -2.1139   -3.8253    0.0000 C   0  0  0  0  0  0  0  0  0  0  0  0
   -3.5769   -3.4942    0.0000 C   0  0  0  0  0  0  0  0  0  0  0  0
   -3.7141   -2.0005    0.0000 N   0  0  0  0  0  0  0  0  0  0  0  0
   -2.3359   -1.4084    0.0000 N   0  0  0  0  0  0  0  0  0  0  0  0
    1.2135    0.3943    0.0000 C   0  0  0  0  0  0  0  0  0  0  0  0
    0.0000    1.2760    0.0000 N   0  0  0  0  0  0  0  0  0  0  0  0
   -1.2135    0.3943    0.0000 C   0  0  0  0  0  0  0  0  0  0  0  0
   -2.0931    1.6049    0.0000 C   0  0  0  0  0  0  0  0  0  0  0  0
   -0.8796    2.4866    0.0000 C   0  0  0  0  0  0  0  0  0  0  0  0
   -0.6918    3.6718    0.0000 O   0  0  0  0  0  0  0  0  0  0  0  0
   -0.7500   -1.0323    0.0000 S   0  0  0  0  0  0  0  0  0  0  0  0
   -0.2455   -2.1211    0.0000 O   0  0  0  0  0  0  0  0  0  0  0  0
   -1.9414   -0.8892    0.0000 O   0  0  0  0  0  0  0  0  0  0  0  0
    2.6394    0.8543    0.0000 C   0  0  0  0  0  0  0  0  0  0  0  0
    3.5300    0.0501    0.0000 O   0  0  0  0  0  0  0  0  0  0  0  0
    2.8910    2.0277    0.0000 O   0  0  0  0  0  0  0  0  0  0  0  0
  2  1  1  1
  2  3  1  0
  3  4  1  0
  4  5  1  0
  5  6  2  0
  6  7  1  0
  7  8  2  0
  8  4  1  0
  2  9  1  0
  9 10  1  0
 10 11  1  0
 11 12  1  6
 12 13  1  0
 13 10  1  0
 13 14  2  0
 11 15  1  0
 15  2  1  0
 15 16  2  0
 15 17  2  0
  9 18  1  1
 18 19  2  0
 18 20  1  0
M  END

> <chembl_id>
CHEMBL404

> <chembl_pref_name>
TAZOBACTAM

$$$$

     RDKit          2D

 29 32  0  0  1  0  0  0  0  0999 V2000
    8.0000   -1.8042    0.0000 S   0  0  0  0  0  0  0  0  0  0  0  0
    7.5250   -3.0417    0.0000 N   0  0  0  0  0  0  0  0  0  0  0  0
    8.6375   -2.3167    0.0000 C   0  0  0  0  0  0  0  0  0  0  0  0
    7.3125   -2.2542    0.0000 C   0  0  0  0  0  0  0  0  0  0  0  0
    8.3417   -3.0792    0.0000 C   0  0  0  0  0  0  0  0  0  0  0  0
    6.7250   -3.2542    0.0000 C   0  0  0  0  0  0  0  0  0  0  0  0
    6.5125   -2.4667    0.0000 C   0  0  0  0  0  0  0  0  0  0  0  0
    4.1917   -3.4542    0.0000 N   0  0  0  0  0  0  0  0  0  0  0  0
    3.7875   -2.7292    0.0000 N   0  0  0  0  0  0  0  0  0  0  0  0
    5.0000   -3.2792    0.0000 N   0  0  0  0  0  0  0  0  0  0  0  0
    5.0875   -2.4542    0.0000 C   0  0  0  0  0  0  0  0  0  0  0  0
    8.7500   -3.7917    0.0000 C   0  0  0  0  0  0  0  0  0  0  0  0
    4.3375   -2.1167    0.0000 C   0  0  0  0  0  0  0  0  0  0  0  0
    8.5792   -1.2167    0.0000 O   0  0  0  0  0  0  0  0  0  0  0  0
    7.4125   -1.2167    0.0000 O   0  0  0  0  0  0  0  0  0  0  0  0
    5.8000   -2.0417    0.0000 C   0  0  0  0  0  0  0  0  0  0  0  0
    6.3125   -3.9667    0.0000 O   0  0  0  0  0  0  0  0  0  0  0  0
    2.9625   -2.6417    0.0000 C   0  0  0  0  0  0  0  0  0  0  0  0
    1.6625   -3.3167    0.0000 N   0  0  0  0  0  0  0  0  0  0  0  0
    9.5750   -3.7917    0.0000 O   0  0  0  0  0  0  0  0  0  0  0  0
    9.2250   -2.9042    0.0000 C   0  0  0  0  0  0  0  0  0  0  0  0
    9.3500   -1.9042    0.0000 C   0  0  0  0  0  0  0  0  0  0  0  0
    2.4875   -3.3042    0.0000 C   0  0  0  0  0  0  0  0  0  0  0  0
    8.3375   -4.5042    0.0000 O   0  0  0  0  0  0  0  0  0  0  0  0
    1.4125   -4.0917    0.0000 C   0  0  0  0  0  0  0  0  0  0  0  0
    2.7375   -4.0917    0.0000 C   0  0  0  0  0  0  0  0  0  0  0  0
    2.0792   -4.5792    0.0000 C   0  0  0  0  0  0  0  0  0  0  0  0
    6.3000   -1.6667    0.0000 H   0  0  0  0  0  0  0  0  0  0  0  0
    6.8917   -1.5292    0.0000 H   0  0  0  0  0  0  0  0  0  0  0  0
  2  4  1  0
  3  1  1  0
  4  1  1  0
  5  3  1  0
  6  7  1  0
  7  4  1  0
  8 10  2  0
  9 13  1  0
 10 11  1  0
 11 16  1  0
  5 12  1  6
 13 11  2  0
 14  1  2  0
 15  1  2  0
  7 16  1  1
 17  6  2  0
 18  9  1  0
 19 23  1  0
 20 12  2  0
 21  3  1  0
 22  3  1  0
 23 18  1  0
 24 12  1  0
 25 19  1  0
 26 23  1  0
 27 26  1  0
  7 28  1  6
  4 29  1  6
  5  2  1  0
  6  2  1  0
  8  9  1  0
 27 25  1  0
M  END

> <chembl_id>
CHEMBL6261

> <chembl_pref_name>
None

$$$$

     RDKit          2D

 30 33  0  0  1  0  0  0  0  0999 V2000
    6.0292   -5.3500    0.0000 S   0  0  0  0  0  0  0  0  0  0  0  0
    5.5542   -6.5917    0.0000 N   0  0  0  0  0  0  0  0  0  0  0  0
    6.6667   -5.8667    0.0000 C   0  0  0  0  0  0  0  0  0  0  0  0
    5.3417   -5.8000    0.0000 C   0  0  0  0  0  0  0  0  0  0  0  0
    6.3750   -6.6292    0.0000 C   0  0  0  0  0  0  0  0  0  0  0  0
    4.7542   -6.8042    0.0000 C   0  0  0  0  0  0  0  0  0  0  0  0
    4.5417   -6.0125    0.0000 C   0  0  0  0  0  0  0  0  0  0  0  0
    2.2250   -7.0000    0.0000 N   0  0  0  0  0  0  0  0  0  0  0  0
    1.8167   -6.2792    0.0000 N   0  0  0  0  0  0  0  0  0  0  0  0
    3.0292   -6.8292    0.0000 N   0  0  0  0  0  0  0  0  0  0  0  0
    3.1167   -6.0042    0.0000 C   0  0  0  0  0  0  0  0  0  0  0  0
    2.3667   -5.6667    0.0000 C   0  0  0  0  0  0  0  0  0  0  0  0
    6.7792   -7.3417    0.0000 C   0  0  0  0  0  0  0  0  0  0  0  0
    6.6125   -4.7625    0.0000 O   0  0  0  0  0  0  0  0  0  0  0  0
    5.4417   -4.7625    0.0000 O   0  0  0  0  0  0  0  0  0  0  0  0
    3.8292   -5.5917    0.0000 C   0  0  0  0  0  0  0  0  0  0  0  0
    0.9917   -6.1917    0.0000 C   0  0  0  0  0  0  0  0  0  0  0  0
    4.3417   -7.5167    0.0000 O   0  0  0  0  0  0  0  0  0  0  0  0
    7.6042   -7.3417    0.0000 O   0  0  0  0  0  0  0  0  0  0  0  0
    7.2542   -6.4500    0.0000 C   0  0  0  0  0  0  0  0  0  0  0  0
    7.3792   -5.4500    0.0000 C   0  0  0  0  0  0  0  0  0  0  0  0
    0.6667   -5.4375    0.0000 C   0  0  0  0  0  0  0  0  0  0  0  0
    0.5167   -6.8542    0.0000 C   0  0  0  0  0  0  0  0  0  0  0  0
    6.3667   -8.0542    0.0000 O   0  0  0  0  0  0  0  0  0  0  0  0
   -0.6458   -6.0167    0.0000 C   0  0  0  0  0  0  0  0  0  0  0  0
   -0.3083   -6.7750    0.0000 C   0  0  0  0  0  0  0  0  0  0  0  0
   -0.1583   -5.3500    0.0000 C   0  0  0  0  0  0  0  0  0  0  0  0
   -1.4708   -6.0167    0.0000 O   0  0  0  0  0  0  0  0  0  0  0  0
    4.3292   -5.2125    0.0000 H   0  0  0  0  0  0  0  0  0  0  0  0
    4.9250   -5.0792    0.0000 H   0  0  0  0  0  0  0  0  0  0  0  0
  2  4  1  0
  3  1  1  0
  4  1  1  0
  5  3  1  0
  6  7  1  0
  7  4  1  0
  8 10  2  0
  9 12  1  0
 10 11  1  0
 11 16  1  0
 12 11  2  0
  5 13  1  6
 14  1  2  0
 15  1  2  0
  7 16  1  1
 17  9  1  0
 18  6  2  0
 19 13  2  0
 20  3  1  0
 21  3  1  0
 22 17  2  0
 23 17  1  0
 24 13  1  0
 25 26  1  0
 26 23  2  0
 27 22  1  0
 28 25  1  0
  7 29  1  6
  4 30  1  6
  2  5  1  0
  2  6  1  0
  9  8  1  0
 27 25  2  0
M  END

> <chembl_id>
CHEMBL6281

> <chembl_pref_name>
None

$$$$

     RDKit          2D

 26 28  0  0  0  0  0  0  0  0999 V2000
   -1.2293   -1.4334    0.0000 C   0  0  0  0  0  0  0  0  0  0  0  0
   -1.2293   -2.2585    0.0000 C   0  0  0  0  0  0  0  0  0  0  0  0
   -0.5171   -2.6669    0.0000 N   0  0  0  0  0  0  0  0  0  0  0  0
   -0.5171   -1.0168    0.0000 C   0  0  0  0  0  0  0  0  0  0  0  0
    0.1949   -1.4334    0.0000 C   0  0  0  0  0  0  0  0  0  0  0  0
    0.1933   -2.2567    0.0000 C   0  0  0  0  0  0  0  0  0  0  0  0
    0.9043   -2.6679    0.0000 C   0  0  0  0  0  0  0  0  0  0  0  0
    1.6174   -2.2570    0.0000 C   0  0  0  0  0  0  0  0  0  0  0  0
    1.6150   -1.4306    0.0000 C   0  0  0  0  0  0  0  0  0  0  0  0
    0.9034   -1.0232    0.0000 C   0  0  0  0  0  0  0  0  0  0  0  0
   -1.9450   -1.0230    0.0000 C   0  0  0  0  0  0  0  0  0  0  0  0
   -1.9475   -0.1979    0.0000 O   0  0  0  0  0  0  0  0  0  0  0  0
   -2.6583   -1.4376    0.0000 O   0  0  0  0  0  0  0  0  0  0  0  0
   -0.5171   -0.1917    0.0000 O   0  0  0  0  0  0  0  0  0  0  0  0
   -0.5159   -3.4920    0.0000 C   0  0  0  0  0  0  0  0  0  0  0  0
   -1.2299   -3.9055    0.0000 C   0  0  0  0  0  0  0  0  0  0  0  0
   -1.2287   -4.7306    0.0000 F   0  0  0  0  0  0  0  0  0  0  0  0
    0.9036   -3.4930    0.0000 F   0  0  0  0  0  0  0  0  0  0  0  0
    2.3282   -1.0158    0.0000 F   0  0  0  0  0  0  0  0  0  0  0  0
    2.3291   -2.6667    0.0000 N   0  0  0  0  0  0  0  0  0  0  0  0
    2.3279   -3.4927    0.0000 C   0  0  0  0  0  0  0  0  0  0  0  0
    3.0388   -3.9044    0.0000 C   0  0  0  0  0  0  0  0  0  0  0  0
    3.7553   -3.4947    0.0000 N   0  0  0  0  0  0  0  0  0  0  0  0
    3.7565   -2.6687    0.0000 C   0  0  0  0  0  0  0  0  0  0  0  0
    3.0411   -2.2524    0.0000 C   0  0  0  0  0  0  0  0  0  0  0  0
    4.4687   -3.9092    0.0000 C   0  0  0  0  0  0  0  0  0  0  0  0
  5  6  2  0
 11 13  1  0
  1  4  1  0
  4 14  2  0
  6  7  1  0
  3 15  1  0
  2  3  1  0
 15 16  1  0
  7  8  2  0
 16 17  1  0
  3  6  1  0
  7 18  1  0
  8  9  1  0
  9 19  1  0
 20 21  1  0
  5  4  1  0
  9 10  2  0
 10  5  1  0
  1 11  1  0
  1  2  2  0
 20 25  1  0
 21 22  1  0
 22 23  1  0
 23 24  1  0
 24 25  1  0
  8 20  1  0
 11 12  2  0
 23 26  1  0
M  END

> <chembl_id>
CHEMBL6273

> <chembl_pref_name>
FLEROXACIN

$$$$

     RDKit          2D

 26 28  0  0  0  0  0  0  0  0999 V2000
    5.2875   -2.7042    0.0000 C   0  0  0  0  0  0  0  0  0  0  0  0
    3.8625   -2.7167    0.0000 C   0  0  0  0  0  0  0  0  0  0  0  0
    4.5792   -3.9542    0.0000 N   0  0  0  0  0  0  0  0  0  0  0  0
    3.8625   -3.5417    0.0000 C   0  0  0  0  0  0  0  0  0  0  0  0
    4.5667   -2.3000    0.0000 C   0  0  0  0  0  0  0  0  0  0  0  0
    3.1417   -3.9542    0.0000 C   0  0  0  0  0  0  0  0  0  0  0  0
    5.2917   -3.5375    0.0000 C   0  0  0  0  0  0  0  0  0  0  0  0
    2.4292   -3.5417    0.0000 C   0  0  0  0  0  0  0  0  0  0  0  0
    1.7167   -3.9542    0.0000 N   0  0  0  0  0  0  0  0  0  0  0  0
    2.4292   -2.7167    0.0000 C   0  0  0  0  0  0  0  0  0  0  0  0
    3.1417   -2.3042    0.0000 C   0  0  0  0  0  0  0  0  0  0  0  0
    6.0000   -2.2917    0.0000 C   0  0  0  0  0  0  0  0  0  0  0  0
    0.9667   -3.6250    0.0000 C   0  0  0  0  0  0  0  0  0  0  0  0
    1.6292   -4.7792    0.0000 C   0  0  0  0  0  0  0  0  0  0  0  0
    4.5667   -1.4750    0.0000 O   0  0  0  0  0  0  0  0  0  0  0  0
    5.9917   -1.4667    0.0000 O   0  0  0  0  0  0  0  0  0  0  0  0
    3.1500   -4.7792    0.0000 F   0  0  0  0  0  0  0  0  0  0  0  0
    0.4167   -4.2375    0.0000 C   0  0  0  0  0  0  0  0  0  0  0  0
    1.7167   -2.3042    0.0000 F   0  0  0  0  0  0  0  0  0  0  0  0
    4.5792   -4.7792    0.0000 C   0  0  0  0  0  0  0  0  0  0  0  0
    6.7167   -2.7000    0.0000 O   0  0  0  0  0  0  0  0  0  0  0  0
    0.8250   -4.9542    0.0000 C   0  0  0  0  0  0  0  0  0  0  0  0
   -0.8958   -4.8167    0.0000 N   0  0  0  0  0  0  0  0  0  0  0  0
   -0.4083   -4.1500    0.0000 C   0  0  0  0  0  0  0  0  0  0  0  0
   -1.7125   -4.7292    0.0000 C   0  0  0  0  0  0  0  0  0  0  0  0
   -2.1958   -5.4000    0.0000 C   0  0  0  0  0  0  0  0  0  0  0  0
  2  5  1  0
  3  7  1  0
  4  3  1  0
  5  1  1  0
  6  4  2  0
  7  1  2  0
  8  6  1  0
  9  8  1  0
 10 11  1  0
 11  2  2  0
 12  1  1  0
 13  9  1  0
 14  9  1  0
 15  5  2  0
 16 12  2  0
 17  6  1  0
 18 13  1  0
 19 10  1  0
 20  3  1  0
 21 12  1  0
 22 14  1  0
 23 24  1  0
 24 18  1  0
 25 23  1  0
 26 25  1  0
  2  4  1  0
 10  8  2  0
 18 22  1  0
M  END

> <chembl_id>
CHEMBL6287

> <chembl_pref_name>
None

$$$$

     RDKit          2D

 31 34  0  0  0  0  0  0  0  0999 V2000
    5.4125   -2.6750    0.0000 C   0  0  0  0  0  0  0  0  0  0  0  0
    4.7042   -3.9167    0.0000 N   0  0  0  0  0  0  0  0  0  0  0  0
    3.9875   -3.5042    0.0000 C   0  0  0  0  0  0  0  0  0  0  0  0
    3.9875   -2.6792    0.0000 C   0  0  0  0  0  0  0  0  0  0  0  0
    3.2667   -3.9250    0.0000 C   0  0  0  0  0  0  0  0  0  0  0  0
    5.4167   -3.5042    0.0000 C   0  0  0  0  0  0  0  0  0  0  0  0
    4.6917   -2.2667    0.0000 C   0  0  0  0  0  0  0  0  0  0  0  0
    2.5542   -3.5125    0.0000 C   0  0  0  0  0  0  0  0  0  0  0  0
    1.8417   -3.9250    0.0000 N   0  0  0  0  0  0  0  0  0  0  0  0
    2.5542   -2.6875    0.0000 C   0  0  0  0  0  0  0  0  0  0  0  0
    3.2667   -2.2667    0.0000 C   0  0  0  0  0  0  0  0  0  0  0  0
    6.1250   -2.2542    0.0000 C   0  0  0  0  0  0  0  0  0  0  0  0
    1.0917   -3.5917    0.0000 C   0  0  0  0  0  0  0  0  0  0  0  0
    4.7042   -4.7417    0.0000 C   0  0  0  0  0  0  0  0  0  0  0  0
    1.7542   -4.7500    0.0000 C   0  0  0  0  0  0  0  0  0  0  0  0
    4.6917   -1.4417    0.0000 O   0  0  0  0  0  0  0  0  0  0  0  0
    3.2750   -4.7500    0.0000 F   0  0  0  0  0  0  0  0  0  0  0  0
    6.1167   -1.4292    0.0000 O   0  0  0  0  0  0  0  0  0  0  0  0
    0.5417   -4.2042    0.0000 C   0  0  0  0  0  0  0  0  0  0  0  0
    1.8417   -2.2750    0.0000 F   0  0  0  0  0  0  0  0  0  0  0  0
    6.8417   -2.6667    0.0000 O   0  0  0  0  0  0  0  0  0  0  0  0
    0.9500   -4.9167    0.0000 C   0  0  0  0  0  0  0  0  0  0  0  0
   -0.7708   -4.7792    0.0000 N   0  0  0  0  0  0  0  0  0  0  0  0
   -0.2833   -4.1167    0.0000 C   0  0  0  0  0  0  0  0  0  0  0  0
    3.9875   -5.1542    0.0000 C   0  0  0  0  0  0  0  0  0  0  0  0
    5.4167   -5.1500    0.0000 C   0  0  0  0  0  0  0  0  0  0  0  0
   -1.5875   -4.6917    0.0000 C   0  0  0  0  0  0  0  0  0  0  0  0
   -2.0708   -5.3667    0.0000 C   0  0  0  0  0  0  0  0  0  0  0  0
    5.4167   -5.9792    0.0000 C   0  0  0  0  0  0  0  0  0  0  0  0
    3.9875   -5.9750    0.0000 C   0  0  0  0  0  0  0  0  0  0  0  0
    4.7000   -6.3917    0.0000 C   0  0  0  0  0  0  0  0  0  0  0  0
  2  6  1  0
  3  4  1  0
  4  7  1  0
  5  3  2  0
  6  1  2  0
  7  1  1  0
  8 10  2  0
  9  8  1  0
 10 11  1  0
 11  4  2  0
 12  1  1  0
 13  9  1  0
 14  2  1  0
 15  9  1  0
 16  7  2  0
 17  5  1  0
 18 12  2  0
 19 13  1  0
 20 10  1  0
 21 12  1  0
 22 15  1  0
 23 24  1  0
 24 19  1  0
 25 14  1  0
 26 14  1  0
 27 23  1  0
 28 27  1  0
 29 26  1  0
 30 25  1  0
 31 29  1  0
  3  2  1  0
  5  8  1  0
 30 31  1  0
 19 22  1  0
M  END

> <chembl_id>
CHEMBL267628

> <chembl_pref_name>
None

$$$$

     RDKit          2D

 33 37  0  0  0  0  0  0  0  0999 V2000
   -3.8951    1.0392    0.0000 S   0  0  0  0  0  0  0  0  0  0  0  0
   -0.1505   -2.5971    0.0000 O   0  0  0  0  0  0  0  0  0  0  0  0
    2.6115   -1.6997    0.0000 O   0  0  0  0  0  0  0  0  0  0  0  0
   -1.4201   -0.3898    0.0000 N   0  0  0  0  0  0  0  0  0  0  0  0
    1.3015   -2.3671    0.0000 N   0  0  0  0  0  0  0  0  0  0  0  0
    1.5565    1.0872    0.0000 N   0  0  0  0  0  0  0  0  0  0  0  0
   -5.1326    1.7536    0.0000 N   0  0  0  0  0  0  0  0  0  0  0  0
   -5.1326    0.3247    0.0000 N   0  0  0  0  0  0  0  0  0  0  0  0
    0.5169   -1.2872    0.0000 C   0  0  0  0  0  0  0  0  0  0  0  0
    1.3015   -1.0323    0.0000 C   0  0  0  0  0  0  0  0  0  0  0  0
   -0.1505   -0.8023    0.0000 C   0  0  0  0  0  0  0  0  0  0  0  0
    1.5565   -0.2476    0.0000 C   0  0  0  0  0  0  0  0  0  0  0  0
   -0.1505    0.0227    0.0000 C   0  0  0  0  0  0  0  0  0  0  0  0
    0.5169   -2.1122    0.0000 C   0  0  0  0  0  0  0  0  0  0  0  0
    1.7865   -1.6997    0.0000 C   0  0  0  0  0  0  0  0  0  0  0  0
    2.3411    0.0073    0.0000 C   0  0  0  0  0  0  0  0  0  0  0  0
   -0.9352    0.2777    0.0000 C   0  0  0  0  0  0  0  0  0  0  0  0
    2.3411    0.8323    0.0000 C   0  0  0  0  0  0  0  0  0  0  0  0
   -0.9352   -1.0572    0.0000 C   0  0  0  0  0  0  0  0  0  0  0  0
    1.0715    0.4198    0.0000 C   0  0  0  0  0  0  0  0  0  0  0  0
    0.4626    0.5748    0.0000 C   0  0  0  0  0  0  0  0  0  0  0  0
    3.0556   -0.4052    0.0000 C   0  0  0  0  0  0  0  0  0  0  0  0
   -1.1067    1.0846    0.0000 C   0  0  0  0  0  0  0  0  0  0  0  0
    3.0556    1.2448    0.0000 C   0  0  0  0  0  0  0  0  0  0  0  0
   -2.2451   -0.3898    0.0000 C   0  0  0  0  0  0  0  0  0  0  0  0
    0.2910    1.3817    0.0000 C   0  0  0  0  0  0  0  0  0  0  0  0
   -0.4936    1.6367    0.0000 C   0  0  0  0  0  0  0  0  0  0  0  0
    3.7700    0.0073    0.0000 C   0  0  0  0  0  0  0  0  0  0  0  0
    3.7700    0.8323    0.0000 C   0  0  0  0  0  0  0  0  0  0  0  0
    1.3015    1.8719    0.0000 C   0  0  0  0  0  0  0  0  0  0  0  0
   -2.6576    0.3247    0.0000 C   0  0  0  0  0  0  0  0  0  0  0  0
   -3.4826    0.3247    0.0000 C   0  0  0  0  0  0  0  0  0  0  0  0
   -4.7201    1.0392    0.0000 C   0  0  0  0  0  0  0  0  0  0  0  0
  1 32  1  0
  1 33  1  0
  2 14  2  0
  3 15  2  0
  4 17  1  0
  4 19  1  0
  4 25  1  0
  5 14  1  0
  5 15  1  0
  6 18  1  0
  6 20  1  0
  6 30  1  0
  7 33  2  0
 33  8  1  0
  9 10  2  0
  9 11  1  0
  9 14  1  0
 10 12  1  0
 10 15  1  0
 11 13  1  0
 11 19  2  0
 12 16  1  0
 12 20  2  0
 13 17  2  0
 13 21  1  0
 16 18  2  0
 16 22  1  0
 17 23  1  0
 18 24  1  0
 21 26  2  0
 22 28  2  0
 23 27  2  0
 24 29  2  0
 25 31  1  0
 26 27  1  0
 28 29  1  0
 31 32  1  0
M  END

> <chembl_id>
CHEMBL6291

> <chembl_pref_name>
BISINDOLYLMALEIMIDE IX

$$$$

     RDKit          2D

 30 33  0  0  1  0  0  0  0  0999 V2000
    6.0292   -5.3500    0.0000 S   0  0  0  0  0  0  0  0  0  0  0  0
    5.5542   -6.5917    0.0000 N   0  0  0  0  0  0  0  0  0  0  0  0
    6.6667   -5.8667    0.0000 C   0  0  0  0  0  0  0  0  0  0  0  0
    5.3417   -5.8000    0.0000 C   0  0  0  0  0  0  0  0  0  0  0  0
    6.3750   -6.6292    0.0000 C   0  0  0  0  0  0  0  0  0  0  0  0
    4.7542   -6.8042    0.0000 C   0  0  0  0  0  0  0  0  0  0  0  0
    4.5417   -6.0125    0.0000 C   0  0  0  0  0  0  0  0  0  0  0  0
    2.2250   -7.0000    0.0000 N   0  0  0  0  0  0  0  0  0  0  0  0
    1.8167   -6.2792    0.0000 N   0  0  0  0  0  0  0  0  0  0  0  0
    3.0292   -6.8292    0.0000 N   0  0  0  0  0  0  0  0  0  0  0  0
    3.1167   -6.0042    0.0000 C   0  0  0  0  0  0  0  0  0  0  0  0
    2.3667   -5.6667    0.0000 C   0  0  0  0  0  0  0  0  0  0  0  0
    6.7792   -7.3417    0.0000 C   0  0  0  0  0  0  0  0  0  0  0  0
    6.6125   -4.7625    0.0000 O   0  0  0  0  0  0  0  0  0  0  0  0
    5.4417   -4.7625    0.0000 O   0  0  0  0  0  0  0  0  0  0  0  0
    3.8292   -5.5917    0.0000 C   0  0  0  0  0  0  0  0  0  0  0  0
    0.9917   -6.1917    0.0000 C   0  0  0  0  0  0  0  0  0  0  0  0
    4.3417   -7.5167    0.0000 O   0  0  0  0  0  0  0  0  0  0  0  0
    7.6042   -7.3417    0.0000 O   0  0  0  0  0  0  0  0  0  0  0  0
    7.2542   -6.4500    0.0000 C   0  0  0  0  0  0  0  0  0  0  0  0
    7.3792   -5.4500    0.0000 C   0  0  0  0  0  0  0  0  0  0  0  0
    0.6667   -5.4375    0.0000 C   0  0  0  0  0  0  0  0  0  0  0  0
    0.5167   -6.8542    0.0000 C   0  0  0  0  0  0  0  0  0  0  0  0
    6.3667   -8.0542    0.0000 O   0  0  0  0  0  0  0  0  0  0  0  0
   -0.6458   -6.0167    0.0000 C   0  0  0  0  0  0  0  0  0  0  0  0
   -0.3083   -6.7750    0.0000 C   0  0  0  0  0  0  0  0  0  0  0  0
   -0.1583   -5.3500    0.0000 C   0  0  0  0  0  0  0  0  0  0  0  0
   -1.4708   -6.0167    0.0000 F   0  0  0  0  0  0  0  0  0  0  0  0
    4.3292   -5.2125    0.0000 H   0  0  0  0  0  0  0  0  0  0  0  0
    4.9250   -5.0792    0.0000 H   0  0  0  0  0  0  0  0  0  0  0  0
  2  4  1  0
  3  1  1  0
  4  1  1  0
  5  3  1  0
  6  7  1  0
  7  4  1  0
  8 10  2  0
  9 12  1  0
 10 11  1  0
 11 16  1  0
 12 11  2  0
  5 13  1  6
 14  1  2  0
 15  1  2  0
  7 16  1  1
 17  9  1  0
 18  6  2  0
 19 13  2  0
 20  3  1  0
 21  3  1  0
 22 17  2  0
 23 17  1  0
 24 13  1  0
 25 26  1  0
 26 23  2  0
 27 22  1  0
 28 25  1  0
  7 29  1  6
  4 30  1  6
  2  5  1  0
  2  6  1  0
  9  8  1  0
 27 25  2  0
M  END

> <chembl_id>
CHEMBL6292

> <chembl_pref_name>
None

$$$$

     RDKit          2D

 30 33  0  0  1  0  0  0  0  0999 V2000
    6.0292   -5.3500    0.0000 S   0  0  0  0  0  0  0  0  0  0  0  0
    5.5542   -6.5917    0.0000 N   0  0  0  0  0  0  0  0  0  0  0  0
    6.6667   -5.8667    0.0000 C   0  0  0  0  0  0  0  0  0  0  0  0
    5.3417   -5.8000    0.0000 C   0  0  0  0  0  0  0  0  0  0  0  0
    6.3750   -6.6292    0.0000 C   0  0  0  0  0  0  0  0  0  0  0  0
    4.7542   -6.8042    0.0000 C   0  0  0  0  0  0  0  0  0  0  0  0
    4.5417   -6.0125    0.0000 C   0  0  0  0  0  0  0  0  0  0  0  0
    2.2250   -7.0000    0.0000 N   0  0  0  0  0  0  0  0  0  0  0  0
    1.8167   -6.2792    0.0000 N   0  0  0  0  0  0  0  0  0  0  0  0
    3.0292   -6.8292    0.0000 N   0  0  0  0  0  0  0  0  0  0  0  0
    3.1167   -6.0042    0.0000 C   0  0  0  0  0  0  0  0  0  0  0  0
    2.3667   -5.6667    0.0000 C   0  0  0  0  0  0  0  0  0  0  0  0
    6.7792   -7.3417    0.0000 C   0  0  0  0  0  0  0  0  0  0  0  0
    6.6125   -4.7625    0.0000 O   0  0  0  0  0  0  0  0  0  0  0  0
    5.4417   -4.7625    0.0000 O   0  0  0  0  0  0  0  0  0  0  0  0
    3.8292   -5.5917    0.0000 C   0  0  0  0  0  0  0  0  0  0  0  0
    0.9917   -6.1917    0.0000 C   0  0  0  0  0  0  0  0  0  0  0  0
    4.3417   -7.5167    0.0000 O   0  0  0  0  0  0  0  0  0  0  0  0
    7.6042   -7.3417    0.0000 O   0  0  0  0  0  0  0  0  0  0  0  0
    7.2542   -6.4500    0.0000 C   0  0  0  0  0  0  0  0  0  0  0  0
    7.3792   -5.4500    0.0000 C   0  0  0  0  0  0  0  0  0  0  0  0
    0.6667   -5.4375    0.0000 C   0  0  0  0  0  0  0  0  0  0  0  0
    0.5167   -6.8542    0.0000 C   0  0  0  0  0  0  0  0  0  0  0  0
    6.3667   -8.0542    0.0000 O   0  0  0  0  0  0  0  0  0  0  0  0
   -0.6458   -6.0167    0.0000 C   0  0  0  0  0  0  0  0  0  0  0  0
   -1.4625   -5.9292    0.0000 N   0  0  0  0  0  0  0  0  0  0  0  0
   -0.1583   -5.3500    0.0000 C   0  0  0  0  0  0  0  0  0  0  0  0
   -0.3083   -6.7750    0.0000 C   0  0  0  0  0  0  0  0  0  0  0  0
    4.3292   -5.2125    0.0000 H   0  0  0  0  0  0  0  0  0  0  0  0
    4.9250   -5.0792    0.0000 H   0  0  0  0  0  0  0  0  0  0  0  0
  2  4  1  0
  3  1  1  0
  4  1  1  0
  5  3  1  0
  6  7  1  0
  7  4  1  0
  8 10  2  0
  9 12  1  0
 10 11  1  0
 11 16  1  0
 12 11  2  0
  5 13  1  6
 14  1  2  0
 15  1  2  0
  7 16  1  1
 17  9  1  0
 18  6  2  0
 19 13  2  0
 20  3  1  0
 21  3  1  0
 22 17  2  0
 23 17  1  0
 24 13  1  0
 25 28  1  0
 26 25  1  0
 27 22  1  0
 28 23  2  0
  7 29  1  6
  4 30  1  6
  2  5  1  0
  2  6  1  0
  9  8  1  0
 27 25  2  0
M  END

> <chembl_id>
CHEMBL267863

> <chembl_pref_name>
None

$$$$

     RDKit          2D

 34 37  0  0  1  0  0  0  0  0999 V2000
    6.0292   -5.3500    0.0000 S   0  0  0  0  0  0  0  0  0  0  0  0
    5.5542   -6.5917    0.0000 N   0  0  0  0  0  0  0  0  0  0  0  0
    6.6667   -5.8667    0.0000 C   0  0  0  0  0  0  0  0  0  0  0  0
    5.3417   -5.8000    0.0000 C   0  0  0  0  0  0  0  0  0  0  0  0
    6.3750   -6.6292    0.0000 C   0  0  0  0  0  0  0  0  0  0  0  0
    4.7542   -6.8042    0.0000 C   0  0  0  0  0  0  0  0  0  0  0  0
    4.5417   -6.0125    0.0000 C   0  0  0  0  0  0  0  0  0  0  0  0
    2.2250   -7.0000    0.0000 N   0  0  0  0  0  0  0  0  0  0  0  0
    1.8167   -6.2792    0.0000 N   0  0  0  0  0  0  0  0  0  0  0  0
    3.0292   -6.8292    0.0000 N   0  0  0  0  0  0  0  0  0  0  0  0
    3.1167   -6.0042    0.0000 C   0  0  0  0  0  0  0  0  0  0  0  0
    6.7792   -7.3417    0.0000 C   0  0  0  0  0  0  0  0  0  0  0  0
    2.3667   -5.6667    0.0000 C   0  0  0  0  0  0  0  0  0  0  0  0
    6.6125   -4.7625    0.0000 O   0  0  0  0  0  0  0  0  0  0  0  0
    5.4417   -4.7625    0.0000 O   0  0  0  0  0  0  0  0  0  0  0  0
    3.8292   -5.5917    0.0000 C   0  0  0  0  0  0  0  0  0  0  0  0
    4.3417   -7.5167    0.0000 O   0  0  0  0  0  0  0  0  0  0  0  0
    0.9917   -6.1917    0.0000 C   0  0  0  0  0  0  0  0  0  0  0  0
    7.6042   -7.3417    0.0000 O   0  0  0  0  0  0  0  0  0  0  0  0
    7.2542   -6.4500    0.0000 C   0  0  0  0  0  0  0  0  0  0  0  0
    7.3792   -5.4500    0.0000 C   0  0  0  0  0  0  0  0  0  0  0  0
    0.5167   -6.8542    0.0000 C   0  0  0  0  0  0  0  0  0  0  0  0
    6.3667   -8.0542    0.0000 O   0  0  0  0  0  0  0  0  0  0  0  0
    0.8917   -7.5917    0.0000 C   0  0  0  0  0  0  0  0  0  0  0  0
    0.4500   -8.2875    0.0000 C   0  0  0  0  0  0  0  0  0  0  0  0
   -0.4458   -9.6667    0.0000 C   0  0  0  0  0  0  0  0  0  0  0  0
   -0.3083   -6.8667    0.0000 N   0  0  0  0  0  0  0  0  0  0  0  0
   -0.3750   -8.2417    0.0000 C   0  0  0  0  0  0  0  0  0  0  0  0
    0.8292   -9.0167    0.0000 C   0  0  0  0  0  0  0  0  0  0  0  0
    0.3875   -9.7042    0.0000 C   0  0  0  0  0  0  0  0  0  0  0  0
   -0.8208   -8.9375    0.0000 C   0  0  0  0  0  0  0  0  0  0  0  0
   -0.8875  -10.3667    0.0000 O   0  0  0  0  0  0  0  0  0  0  0  0
    4.3292   -5.2125    0.0000 H   0  0  0  0  0  0  0  0  0  0  0  0
    4.9250   -5.0792    0.0000 H   0  0  0  0  0  0  0  0  0  0  0  0
  2  4  1  0
  3  1  1  0
  4  1  1  0
  5  3  1  0
  6  7  1  0
  7  4  1  0
  8 10  2  0
  9 13  1  0
 10 11  1  0
 11 16  1  0
  5 12  1  6
 13 11  2  0
 14  1  2  0
 15  1  2  0
  7 16  1  1
 17  6  2  0
 18  9  1  0
 19 12  2  0
 20  3  1  0
 21  3  1  0
 22 18  1  0
 23 12  1  0
 24 22  1  0
 25 24  1  0
 26 30  1  0
 27 22  1  0
 28 25  2  0
 29 25  1  0
 30 29  2  0
 31 28  1  0
 32 26  1  0
  7 33  1  6
  4 34  1  6
  2  5  1  0
  2  6  1  0
  9  8  1  0
 31 26  2  0
M  END

> <chembl_id>
CHEMBL263882

> <chembl_pref_name>
None

$$$$

     RDKit          2D

 33 37  0  0  0  0  0  0  0  0999 V2000
    5.7542   -5.2167    0.0000 C   0  0  0  0  0  0  0  0  0  0  0  0
    6.3542   -5.2250    0.0000 C   0  0  0  0  0  0  0  0  0  0  0  0
    6.7042   -5.7125    0.0000 C   0  0  0  0  0  0  0  0  0  0  0  0
    5.4917   -5.7542    0.0000 C   0  0  0  0  0  0  0  0  0  0  0  0
    5.5792   -4.6500    0.0000 C   0  0  0  0  0  0  0  0  0  0  0  0
    6.5417   -4.6542    0.0000 C   0  0  0  0  0  0  0  0  0  0  0  0
    6.0625   -4.3000    0.0000 N   0  0  0  0  0  0  0  0  0  0  0  0
    6.6917   -6.3167    0.0000 C   0  0  0  0  0  0  0  0  0  0  0  0
    5.7667   -6.2917    0.0000 C   0  0  0  0  0  0  0  0  0  0  0  0
    5.3417   -6.7167    0.0000 N   0  0  0  0  0  0  0  0  0  0  0  0
    7.2667   -6.5042    0.0000 N   0  0  0  0  0  0  0  0  0  0  0  0
    4.8917   -5.8542    0.0000 C   0  0  0  0  0  0  0  0  0  0  0  0
    7.2792   -5.5375    0.0000 C   0  0  0  0  0  0  0  0  0  0  0  0
    7.6250   -6.0292    0.0000 C   0  0  0  0  0  0  0  0  0  0  0  0
    4.8042   -6.4542    0.0000 C   0  0  0  0  0  0  0  0  0  0  0  0
    7.1167   -4.4750    0.0000 O   0  0  0  0  0  0  0  0  0  0  0  0
    5.0042   -4.4625    0.0000 O   0  0  0  0  0  0  0  0  0  0  0  0
    4.6167   -8.6667    0.0000 N   0  0  0  0  0  0  0  0  0  0  0  0
    5.4417   -7.3125    0.0000 C   0  0  0  0  0  0  0  0  0  0  0  0
    4.9792   -7.6917    0.0000 C   0  0  0  0  0  0  0  0  0  0  0  0
    7.4417   -7.0792    0.0000 C   0  0  0  0  0  0  0  0  0  0  0  0
    4.4250   -5.4792    0.0000 C   0  0  0  0  0  0  0  0  0  0  0  0
    7.5250   -4.9917    0.0000 C   0  0  0  0  0  0  0  0  0  0  0  0
    5.0792   -8.2875    0.0000 C   0  0  0  0  0  0  0  0  0  0  0  0
    8.2167   -5.9667    0.0000 C   0  0  0  0  0  0  0  0  0  0  0  0
    4.2417   -6.6667    0.0000 C   0  0  0  0  0  0  0  0  0  0  0  0
    4.6042   -9.2667    0.0000 C   0  0  0  0  0  0  0  0  0  0  0  0
    4.0167   -8.6625    0.0000 C   0  0  0  0  0  0  0  0  0  0  0  0
    5.1917   -8.8167    0.0000 C   0  0  0  0  0  0  0  0  0  0  0  0
    8.1167   -4.9375    0.0000 C   0  0  0  0  0  0  0  0  0  0  0  0
    3.8667   -5.7000    0.0000 C   0  0  0  0  0  0  0  0  0  0  0  0
    3.7792   -6.2917    0.0000 C   0  0  0  0  0  0  0  0  0  0  0  0
    8.4667   -5.4292    0.0000 C   0  0  0  0  0  0  0  0  0  0  0  0
  2  1  2  0
  3  2  1  0
  4  1  1  0
  5  1  1  0
  6  2  1  0
  7  5  1  0
  8  3  2  0
  9  4  2  0
 10  9  1  0
 11  8  1  0
 12  4  1  0
 13  3  1  0
 14 13  2  0
 15 12  2  0
 16  6  2  0
 17  5  2  0
 18 24  1  0
 19 10  1  0
 20 19  1  0
 21 11  1  0
 22 12  1  0
 23 13  1  0
 24 20  1  0
 25 14  1  0
 26 15  1  0
 27 18  1  0
 28 18  1  0
 29 18  1  0
 30 23  2  0
 31 22  2  0
 32 31  1  0
 33 30  1  0
  7  6  1  0
 10 15  1  0
 14 11  1  0
 32 26  2  0
 33 25  2  0
M  CHG  1  18   1
M  END

> <chembl_id>
CHEMBL6331

> <chembl_pref_name>
None

$$$$

     RDKit          2D

 33 37  0  0  0  0  0  0  0  0999 V2000
    9.4167    2.0083    0.0000 C   0  0  0  0  0  0  0  0  0  0  0  0
   10.0167    2.0000    0.0000 C   0  0  0  0  0  0  0  0  0  0  0  0
   10.3625    1.5125    0.0000 C   0  0  0  0  0  0  0  0  0  0  0  0
    9.1500    1.4708    0.0000 C   0  0  0  0  0  0  0  0  0  0  0  0
    9.2375    2.5833    0.0000 C   0  0  0  0  0  0  0  0  0  0  0  0
   10.2042    2.5708    0.0000 C   0  0  0  0  0  0  0  0  0  0  0  0
    9.7167    2.9250    0.0000 N   0  0  0  0  0  0  0  0  0  0  0  0
   10.3542    0.9083    0.0000 C   0  0  0  0  0  0  0  0  0  0  0  0
    9.4250    0.9333    0.0000 C   0  0  0  0  0  0  0  0  0  0  0  0
   10.9250    0.7208    0.0000 N   0  0  0  0  0  0  0  0  0  0  0  0
    9.0042    0.5083    0.0000 N   0  0  0  0  0  0  0  0  0  0  0  0
    8.5542    1.3708    0.0000 C   0  0  0  0  0  0  0  0  0  0  0  0
   10.9375    1.6875    0.0000 C   0  0  0  0  0  0  0  0  0  0  0  0
   11.2792    1.1958    0.0000 C   0  0  0  0  0  0  0  0  0  0  0  0
    8.4667    0.7708    0.0000 C   0  0  0  0  0  0  0  0  0  0  0  0
   10.7792    2.7500    0.0000 O   0  0  0  0  0  0  0  0  0  0  0  0
    8.6667    2.7708    0.0000 O   0  0  0  0  0  0  0  0  0  0  0  0
    8.2667   -2.0417    0.0000 C   0  0  0  0  0  0  0  0  0  0  0  0
    7.7417   -2.3375    0.0000 N   0  0  0  0  0  0  0  0  0  0  0  0
    8.7792   -2.3417    0.0000 N   0  0  0  0  0  0  0  0  0  0  0  0
    9.1000   -0.0875    0.0000 C   0  0  0  0  0  0  0  0  0  0  0  0
   11.1000    0.1458    0.0000 C   0  0  0  0  0  0  0  0  0  0  0  0
    8.0792    1.7458    0.0000 C   0  0  0  0  0  0  0  0  0  0  0  0
   11.1792    2.2333    0.0000 C   0  0  0  0  0  0  0  0  0  0  0  0
   11.8792    1.2583    0.0000 C   0  0  0  0  0  0  0  0  0  0  0  0
    7.9042    0.5583    0.0000 C   0  0  0  0  0  0  0  0  0  0  0  0
    8.2750   -1.4417    0.0000 C   0  0  0  0  0  0  0  0  0  0  0  0
    8.6375   -0.4667    0.0000 C   0  0  0  0  0  0  0  0  0  0  0  0
    8.7375   -1.0625    0.0000 C   0  0  0  0  0  0  0  0  0  0  0  0
   11.7792    2.2875    0.0000 C   0  0  0  0  0  0  0  0  0  0  0  0
    7.5250    1.5250    0.0000 C   0  0  0  0  0  0  0  0  0  0  0  0
    7.4375    0.9333    0.0000 C   0  0  0  0  0  0  0  0  0  0  0  0
   12.1292    1.7958    0.0000 C   0  0  0  0  0  0  0  0  0  0  0  0
  2  1  2  0
  3  2  1  0
  4  1  1  0
  5  1  1  0
  6  2  1  0
  7  5  1  0
  8  3  2  0
  9  4  2  0
 10  8  1  0
 11  9  1  0
 12  4  1  0
 13  3  1  0
 14 13  2  0
 15 12  2  0
 16  6  2  0
 17  5  2  0
 18 27  1  0
 19 18  2  0
 20 18  1  0
 21 11  1  0
 22 10  1  0
 23 12  1  0
 24 13  1  0
 25 14  1  0
 26 15  1  0
 27 29  1  0
 28 21  1  0
 29 28  1  0
 30 24  2  0
 31 23  2  0
 32 31  1  0
 33 30  1  0
  7  6  1  0
 11 15  1  0
 14 10  1  0
 26 32  2  0
 33 25  2  0
M  END

> <chembl_id>
CHEMBL6332

> <chembl_pref_name>
None

$$$$

     RDKit          2D

 32 36  0  0  0  0  0  0  0  0999 V2000
   16.1232  -14.9879    0.0000 C   0  0  0  0  0  0  0  0  0  0  0  0
   16.2925  -15.7978    0.0000 C   0  0  0  0  0  0  0  0  0  0  0  0
   15.6766  -16.3472    0.0000 C   0  0  0  0  0  0  0  0  0  0  0  0
   15.3424  -14.7285    0.0000 C   0  0  0  0  0  0  0  0  0  0  0  0
   14.7252  -15.2745    0.0000 C   0  0  0  0  0  0  0  0  0  0  0  0
   14.8884  -16.0845    0.0000 C   0  0  0  0  0  0  0  0  0  0  0  0
   14.1684  -16.4902    0.0000 N   0  0  0  0  0  0  0  0  0  0  0  0
   13.5601  -15.9308    0.0000 C   0  0  0  0  0  0  0  0  0  0  0  0
   13.9042  -15.1794    0.0000 C   0  0  0  0  0  0  0  0  0  0  0  0
   10.0476  -15.6193    0.0000 C   0  0  0  0  0  0  0  0  0  0  0  0
   10.0464  -16.4466    0.0000 C   0  0  0  0  0  0  0  0  0  0  0  0
   10.7612  -16.8594    0.0000 C   0  0  0  0  0  0  0  0  0  0  0  0
   10.7594  -15.2065    0.0000 C   0  0  0  0  0  0  0  0  0  0  0  0
   11.4747  -15.6157    0.0000 C   0  0  0  0  0  0  0  0  0  0  0  0
   11.4795  -16.4420    0.0000 C   0  0  0  0  0  0  0  0  0  0  0  0
   12.2669  -16.6928    0.0000 N   0  0  0  0  0  0  0  0  0  0  0  0
   12.2591  -15.3557    0.0000 C   0  0  0  0  0  0  0  0  0  0  0  0
   12.7444  -16.0197    0.0000 C   0  0  0  0  0  0  0  0  0  0  0  0
   12.5873  -14.6065    0.0000 C   0  0  0  0  0  0  0  0  0  0  0  0
   13.3981  -14.5112    0.0000 C   0  0  0  0  0  0  0  0  0  0  0  0
   13.5580  -13.7107    0.0000 C   0  0  0  0  0  0  0  0  0  0  0  0
   12.8461  -13.3111    0.0000 N   0  0  0  0  0  0  0  0  0  0  0  0
   12.2462  -13.8649    0.0000 C   0  0  0  0  0  0  0  0  0  0  0  0
   14.3074  -13.3659    0.0000 O   0  0  0  0  0  0  0  0  0  0  0  0
   12.5286  -17.4751    0.0000 C   0  0  0  0  0  0  0  0  0  0  0  0
   11.9818  -18.0928    0.0000 C   0  0  0  0  0  0  0  0  0  0  0  0
   12.2435  -18.8752    0.0000 C   0  0  0  0  0  0  0  0  0  0  0  0
   11.6968  -19.4929    0.0000 N   0  0  0  0  0  0  0  0  0  0  0  0
   11.9584  -20.2752    0.0000 C   0  0  0  0  0  0  0  0  0  0  0  0
   10.8884  -19.3283    0.0000 C   0  0  0  0  0  0  0  0  0  0  0  0
   14.0735  -17.3096    0.0000 C   0  0  0  0  0  0  0  0  0  0  0  0
   11.4372  -13.7033    0.0000 O   0  0  0  0  0  0  0  0  0  0  0  0
  5  4  2  0
 15 16  1  0
 16 18  1  0
 17 14  1  0
  6  7  1  0
  7  8  1  0
 17 18  2  0
  9 20  1  0
 19 17  1  0
 19 20  2  0
  8  9  2  0
  9  5  1  0
  4  1  1  0
  5  6  1  0
 10 11  2  0
 20 21  1  0
 21 22  1  0
 22 23  1  0
 23 19  1  0
 21 24  2  0
 11 12  1  0
 16 25  1  0
 12 15  2  0
 25 26  1  0
  2  3  1  0
 26 27  1  0
 14 13  2  0
 27 28  1  0
 13 10  1  0
 28 29  1  0
 14 15  1  0
 28 30  1  0
  3  6  2  0
  7 31  1  0
  1  2  2  0
 23 32  2  0
M  END

> <chembl_id>
CHEMBL268769

> <chembl_pref_name>
None

$$$$

     RDKit          2D

 30 34  0  0  0  0  0  0  0  0999 V2000
   -0.2946    4.7973    0.0000 N   0  0  0  0  0  0  0  0  0  0  0  0
   -0.9621    4.3124    0.0000 C   0  0  0  0  0  0  0  0  0  0  0  0
   -0.7071    3.5278    0.0000 C   0  0  0  0  0  0  0  0  0  0  0  0
    0.1179    3.5278    0.0000 C   0  0  0  0  0  0  0  0  0  0  0  0
    0.3728    4.3124    0.0000 C   0  0  0  0  0  0  0  0  0  0  0  0
    1.1574    4.5673    0.0000 O   0  0  0  0  0  0  0  0  0  0  0  0
   -1.7467    4.5673    0.0000 O   0  0  0  0  0  0  0  0  0  0  0  0
   -1.1921    2.8604    0.0000 C   0  0  0  0  0  0  0  0  0  0  0  0
    0.6028    2.8604    0.0000 C   0  0  0  0  0  0  0  0  0  0  0  0
   -2.0171    2.8603    0.0000 C   0  0  0  0  0  0  0  0  0  0  0  0
   -2.2720    2.0758    0.0000 C   0  0  0  0  0  0  0  0  0  0  0  0
   -1.6045    1.5908    0.0000 N   0  0  0  0  0  0  0  0  0  0  0  0
   -0.9371    2.0757    0.0000 C   0  0  0  0  0  0  0  0  0  0  0  0
    0.3479    2.0757    0.0000 C   0  0  0  0  0  0  0  0  0  0  0  0
    1.0153    1.5908    0.0000 N   0  0  0  0  0  0  0  0  0  0  0  0
    1.6827    2.0758    0.0000 C   0  0  0  0  0  0  0  0  0  0  0  0
    1.4278    2.8603    0.0000 C   0  0  0  0  0  0  0  0  0  0  0  0
    1.9798    3.4735    0.0000 C   0  0  0  0  0  0  0  0  0  0  0  0
    2.7868    3.3020    0.0000 C   0  0  0  0  0  0  0  0  0  0  0  0
    3.0417    2.5174    0.0000 C   0  0  0  0  0  0  0  0  0  0  0  0
    2.4897    1.9043    0.0000 C   0  0  0  0  0  0  0  0  0  0  0  0
   -2.5691    3.4735    0.0000 C   0  0  0  0  0  0  0  0  0  0  0  0
   -3.3761    3.3019    0.0000 C   0  0  0  0  0  0  0  0  0  0  0  0
   -3.6310    2.5173    0.0000 C   0  0  0  0  0  0  0  0  0  0  0  0
   -3.0790    1.9042    0.0000 C   0  0  0  0  0  0  0  0  0  0  0  0
   -1.6045    0.7658    0.0000 C   0  0  0  0  0  0  0  0  0  0  0  0
    1.0153    0.7658    0.0000 C   0  0  0  0  0  0  0  0  0  0  0  0
    1.7297    0.3533    0.0000 C   0  0  0  0  0  0  0  0  0  0  0  0
    1.7297   -0.4717    0.0000 C   0  0  0  0  0  0  0  0  0  0  0  0
    2.4442   -0.8842    0.0000 N   0  0  0  0  0  0  0  0  0  0  0  0
  1  2  1  0
  2  3  1  0
  3  4  2  0
  4  5  1  0
  1  5  1  0
  5  6  2  0
  2  7  2  0
  3  8  1  0
  4  9  1  0
  8 10  1  0
  8 13  2  0
 11 12  1  0
 12 13  1  0
  9 14  2  0
  9 17  1  0
 14 15  1  0
 15 16  1  0
 21 16  1  0
 16 17  2  0
 17 18  1  0
 18 19  2  0
 19 20  1  0
 20 21  2  0
 10 22  1  0
 11 10  2  0
 25 11  1  0
 22 23  2  0
 23 24  1  0
 24 25  2  0
 12 26  1  0
 15 27  1  0
 27 28  1  0
 28 29  1  0
 29 30  1  0
M  END

> <chembl_id>
CHEMBL269264

> <chembl_pref_name>
None

$$$$

     RDKit          2D

 27 29  0  0  0  0  0  0  0  0999 V2000
    5.2875   -2.7042    0.0000 C   0  0  0  0  0  0  0  0  0  0  0  0
    3.8625   -2.7167    0.0000 C   0  0  0  0  0  0  0  0  0  0  0  0
    4.5792   -3.9542    0.0000 N   0  0  0  0  0  0  0  0  0  0  0  0
    3.8625   -3.5417    0.0000 C   0  0  0  0  0  0  0  0  0  0  0  0
    4.5667   -2.3000    0.0000 C   0  0  0  0  0  0  0  0  0  0  0  0
    3.1417   -3.9542    0.0000 C   0  0  0  0  0  0  0  0  0  0  0  0
    5.2917   -3.5375    0.0000 C   0  0  0  0  0  0  0  0  0  0  0  0
    2.4292   -3.5417    0.0000 C   0  0  0  0  0  0  0  0  0  0  0  0
    1.7167   -3.9542    0.0000 N   0  0  0  0  0  0  0  0  0  0  0  0
    2.4292   -2.7167    0.0000 C   0  0  0  0  0  0  0  0  0  0  0  0
    3.1417   -2.3042    0.0000 C   0  0  0  0  0  0  0  0  0  0  0  0
    6.0000   -2.2917    0.0000 C   0  0  0  0  0  0  0  0  0  0  0  0
    0.9667   -3.6250    0.0000 C   0  0  0  0  0  0  0  0  0  0  0  0
    1.6292   -4.7792    0.0000 C   0  0  0  0  0  0  0  0  0  0  0  0
    4.5667   -1.4750    0.0000 O   0  0  0  0  0  0  0  0  0  0  0  0
    5.9917   -1.4667    0.0000 O   0  0  0  0  0  0  0  0  0  0  0  0
    3.1500   -4.7792    0.0000 F   0  0  0  0  0  0  0  0  0  0  0  0
    0.4167   -4.2375    0.0000 C   0  0  0  0  0  0  0  0  0  0  0  0
    1.7167   -2.3042    0.0000 F   0  0  0  0  0  0  0  0  0  0  0  0
    4.5792   -4.7792    0.0000 C   0  0  0  0  0  0  0  0  0  0  0  0
    6.7167   -2.7000    0.0000 O   0  0  0  0  0  0  0  0  0  0  0  0
    0.8250   -4.9542    0.0000 C   0  0  0  0  0  0  0  0  0  0  0  0
   -0.8958   -4.8167    0.0000 N   0  0  0  0  0  0  0  0  0  0  0  0
   -0.4083   -4.1500    0.0000 C   0  0  0  0  0  0  0  0  0  0  0  0
   -1.7125   -4.7292    0.0000 C   0  0  0  0  0  0  0  0  0  0  0  0
    3.8667   -5.1917    0.0000 C   0  0  0  0  0  0  0  0  0  0  0  0
   -2.1958   -5.4000    0.0000 C   0  0  0  0  0  0  0  0  0  0  0  0
  2  5  1  0
  3  7  1  0
  4  3  1  0
  5  1  1  0
  6  4  2  0
  7  1  2  0
  8  6  1  0
  9  8  1  0
 10 11  1  0
 11  2  2  0
 12  1  1  0
 13  9  1  0
 14  9  1  0
 15  5  2  0
 16 12  2  0
 17  6  1  0
 18 13  1  0
 19 10  1  0
 20  3  1  0
 21 12  1  0
 22 14  1  0
 23 24  1  0
 24 18  1  0
 25 23  1  0
 26 20  1  0
 27 25  1  0
  2  4  1  0
 10  8  2  0
 18 22  1  0
M  END

> <chembl_id>
CHEMBL6209

> <chembl_pref_name>
MERAFLOXACIN

$$$$

     RDKit          2D

 28 31  0  0  0  0  0  0  0  0999 V2000
    4.5792   -3.9542    0.0000 N   0  0  0  0  0  0  0  0  0  0  0  0
    5.2875   -2.7042    0.0000 C   0  0  0  0  0  0  0  0  0  0  0  0
    3.8625   -3.5417    0.0000 C   0  0  0  0  0  0  0  0  0  0  0  0
    3.8625   -2.7167    0.0000 C   0  0  0  0  0  0  0  0  0  0  0  0
    3.1417   -3.9542    0.0000 C   0  0  0  0  0  0  0  0  0  0  0  0
    5.2917   -3.5375    0.0000 C   0  0  0  0  0  0  0  0  0  0  0  0
    4.5667   -2.3000    0.0000 C   0  0  0  0  0  0  0  0  0  0  0  0
    2.4292   -3.5417    0.0000 C   0  0  0  0  0  0  0  0  0  0  0  0
    1.7167   -3.9542    0.0000 N   0  0  0  0  0  0  0  0  0  0  0  0
    2.4292   -2.7167    0.0000 C   0  0  0  0  0  0  0  0  0  0  0  0
    4.5792   -4.7792    0.0000 C   0  0  0  0  0  0  0  0  0  0  0  0
    3.1417   -2.3042    0.0000 C   0  0  0  0  0  0  0  0  0  0  0  0
    6.0000   -2.2917    0.0000 C   0  0  0  0  0  0  0  0  0  0  0  0
    4.1667   -5.4917    0.0000 C   0  0  0  0  0  0  0  0  0  0  0  0
    4.9917   -5.4917    0.0000 C   0  0  0  0  0  0  0  0  0  0  0  0
    0.9667   -3.6250    0.0000 C   0  0  0  0  0  0  0  0  0  0  0  0
    1.6292   -4.7792    0.0000 C   0  0  0  0  0  0  0  0  0  0  0  0
    4.5667   -1.4750    0.0000 O   0  0  0  0  0  0  0  0  0  0  0  0
    3.1500   -4.7792    0.0000 F   0  0  0  0  0  0  0  0  0  0  0  0
    5.9917   -1.4667    0.0000 O   0  0  0  0  0  0  0  0  0  0  0  0
    0.4167   -4.2375    0.0000 C   0  0  0  0  0  0  0  0  0  0  0  0
    1.7167   -2.3042    0.0000 F   0  0  0  0  0  0  0  0  0  0  0  0
    6.7167   -2.7000    0.0000 O   0  0  0  0  0  0  0  0  0  0  0  0
    0.8250   -4.9542    0.0000 C   0  0  0  0  0  0  0  0  0  0  0  0
   -0.8958   -4.8167    0.0000 N   0  0  0  0  0  0  0  0  0  0  0  0
   -0.4083   -4.1500    0.0000 C   0  0  0  0  0  0  0  0  0  0  0  0
   -1.7125   -4.7292    0.0000 C   0  0  0  0  0  0  0  0  0  0  0  0
   -2.1958   -5.4000    0.0000 C   0  0  0  0  0  0  0  0  0  0  0  0
  2  6  2  0
  3  1  1  0
  4  3  1  0
  5  3  2  0
  6  1  1  0
  7  2  1  0
  8  5  1  0
  9  8  1  0
 10  8  2  0
 11  1  1  0
 12  4  2  0
 13  2  1  0
 14 11  1  0
 15 11  1  0
 16  9  1  0
 17  9  1  0
 18  7  2  0
 19  5  1  0
 20 13  2  0
 21 16  1  0
 22 10  1  0
 23 13  1  0
 24 17  1  0
 25 26  1  0
 26 21  1  0
 27 25  1  0
 28 27  1  0
 15 14  1  0
  7  4  1  0
 12 10  1  0
 21 24  1  0
M  END

> <chembl_id>
CHEMBL6210

> <chembl_pref_name>
PD-117558

$$$$

     RDKit          2D

 33 37  0  0  0  0  0  0  0  0999 V2000
    9.4167    2.0083    0.0000 C   0  0  0  0  0  0  0  0  0  0  0  0
   10.0167    2.0000    0.0000 C   0  0  0  0  0  0  0  0  0  0  0  0
   10.3625    1.5125    0.0000 C   0  0  0  0  0  0  0  0  0  0  0  0
    9.1500    1.4708    0.0000 C   0  0  0  0  0  0  0  0  0  0  0  0
    9.2375    2.5833    0.0000 C   0  0  0  0  0  0  0  0  0  0  0  0
   10.2042    2.5708    0.0000 C   0  0  0  0  0  0  0  0  0  0  0  0
    9.7167    2.9250    0.0000 N   0  0  0  0  0  0  0  0  0  0  0  0
   10.3542    0.9083    0.0000 C   0  0  0  0  0  0  0  0  0  0  0  0
    9.4250    0.9333    0.0000 C   0  0  0  0  0  0  0  0  0  0  0  0
    9.0042    0.5083    0.0000 N   0  0  0  0  0  0  0  0  0  0  0  0
   10.9250    0.7208    0.0000 N   0  0  0  0  0  0  0  0  0  0  0  0
    8.5542    1.3708    0.0000 C   0  0  0  0  0  0  0  0  0  0  0  0
   10.9375    1.6875    0.0000 C   0  0  0  0  0  0  0  0  0  0  0  0
   11.2792    1.1958    0.0000 C   0  0  0  0  0  0  0  0  0  0  0  0
    8.4667    0.7708    0.0000 C   0  0  0  0  0  0  0  0  0  0  0  0
    8.2667   -2.0417    0.0000 C   0  0  0  0  0  0  0  0  0  0  0  0
   10.7792    2.7500    0.0000 O   0  0  0  0  0  0  0  0  0  0  0  0
    8.6667    2.7708    0.0000 O   0  0  0  0  0  0  0  0  0  0  0  0
    7.7417   -2.3375    0.0000 N   0  0  0  0  0  0  0  0  0  0  0  0
    8.2750   -1.4417    0.0000 N   0  0  0  0  0  0  0  0  0  0  0  0
    8.7792   -2.3417    0.0000 N   0  0  0  0  0  0  0  0  0  0  0  0
    9.1000   -0.0875    0.0000 C   0  0  0  0  0  0  0  0  0  0  0  0
   11.1000    0.1458    0.0000 C   0  0  0  0  0  0  0  0  0  0  0  0
    8.0792    1.7458    0.0000 C   0  0  0  0  0  0  0  0  0  0  0  0
   11.1792    2.2333    0.0000 C   0  0  0  0  0  0  0  0  0  0  0  0
    8.6375   -0.4667    0.0000 C   0  0  0  0  0  0  0  0  0  0  0  0
    7.9042    0.5583    0.0000 C   0  0  0  0  0  0  0  0  0  0  0  0
   11.8792    1.2583    0.0000 C   0  0  0  0  0  0  0  0  0  0  0  0
    8.7375   -1.0625    0.0000 C   0  0  0  0  0  0  0  0  0  0  0  0
   11.7792    2.2875    0.0000 C   0  0  0  0  0  0  0  0  0  0  0  0
    7.5250    1.5250    0.0000 C   0  0  0  0  0  0  0  0  0  0  0  0
    7.4375    0.9333    0.0000 C   0  0  0  0  0  0  0  0  0  0  0  0
   12.1292    1.7958    0.0000 C   0  0  0  0  0  0  0  0  0  0  0  0
  2  1  2  0
  3  2  1  0
  4  1  1  0
  5  1  1  0
  6  2  1  0
  7  5  1  0
  8  3  2  0
  9  4  2  0
 10  9  1  0
 11  8  1  0
 12  4  1  0
 13  3  1  0
 14 13  2  0
 15 12  2  0
 16 20  2  0
 17  6  2  0
 18  5  2  0
 19 16  1  0
 20 29  1  0
 21 16  1  0
 22 10  1  0
 23 11  1  0
 24 12  1  0
 25 13  1  0
 26 22  1  0
 27 15  1  0
 28 14  1  0
 29 26  1  0
 30 25  2  0
 31 24  2  0
 32 31  1  0
 33 30  1  0
  7  6  1  0
 10 15  1  0
 14 11  1  0
 27 32  2  0
 33 28  2  0
M  END

> <chembl_id>
CHEMBL267386

> <chembl_pref_name>
None

$$$$

     RDKit          2D

 29 32  0  0  1  0  0  0  0  0999 V2000
    6.0292   -5.3500    0.0000 S   0  0  0  0  0  0  0  0  0  0  0  0
    5.5542   -6.5917    0.0000 N   0  0  0  0  0  0  0  0  0  0  0  0
    6.6667   -5.8667    0.0000 C   0  0  0  0  0  0  0  0  0  0  0  0
    5.3417   -5.8000    0.0000 C   0  0  0  0  0  0  0  0  0  0  0  0
    6.3750   -6.6292    0.0000 C   0  0  0  0  0  0  0  0  0  0  0  0
    4.7542   -6.8042    0.0000 C   0  0  0  0  0  0  0  0  0  0  0  0
    4.5417   -6.0125    0.0000 C   0  0  0  0  0  0  0  0  0  0  0  0
    2.2250   -7.0000    0.0000 N   0  0  0  0  0  0  0  0  0  0  0  0
    1.8167   -6.2792    0.0000 N   0  0  0  0  0  0  0  0  0  0  0  0
    3.0292   -6.8292    0.0000 N   0  0  0  0  0  0  0  0  0  0  0  0
    3.1167   -6.0042    0.0000 C   0  0  0  0  0  0  0  0  0  0  0  0
    2.3667   -5.6667    0.0000 C   0  0  0  0  0  0  0  0  0  0  0  0
    6.7792   -7.3417    0.0000 C   0  0  0  0  0  0  0  0  0  0  0  0
    6.6125   -4.7625    0.0000 O   0  0  0  0  0  0  0  0  0  0  0  0
    5.4417   -4.7625    0.0000 O   0  0  0  0  0  0  0  0  0  0  0  0
    3.8292   -5.5917    0.0000 C   0  0  0  0  0  0  0  0  0  0  0  0
    4.3417   -7.5167    0.0000 O   0  0  0  0  0  0  0  0  0  0  0  0
    0.9917   -6.1917    0.0000 C   0  0  0  0  0  0  0  0  0  0  0  0
    7.6042   -7.3417    0.0000 O   0  0  0  0  0  0  0  0  0  0  0  0
    7.2542   -6.4500    0.0000 C   0  0  0  0  0  0  0  0  0  0  0  0
    7.3792   -5.4500    0.0000 C   0  0  0  0  0  0  0  0  0  0  0  0
    6.3667   -8.0542    0.0000 O   0  0  0  0  0  0  0  0  0  0  0  0
    0.6667   -5.4375    0.0000 C   0  0  0  0  0  0  0  0  0  0  0  0
    0.5167   -6.8542    0.0000 C   0  0  0  0  0  0  0  0  0  0  0  0
   -0.3083   -6.7750    0.0000 C   0  0  0  0  0  0  0  0  0  0  0  0
   -0.1583   -5.3500    0.0000 C   0  0  0  0  0  0  0  0  0  0  0  0
   -0.6458   -6.0167    0.0000 C   0  0  0  0  0  0  0  0  0  0  0  0
    4.3292   -5.2125    0.0000 H   0  0  0  0  0  0  0  0  0  0  0  0
    4.9250   -5.0792    0.0000 H   0  0  0  0  0  0  0  0  0  0  0  0
  2  4  1  0
  3  1  1  0
  4  1  1  0
  5  3  1  0
  6  7  1  0
  7  4  1  0
  8 10  2  0
  9 12  1  0
 10 11  1  0
 11 16  1  0
 12 11  2  0
  5 13  1  6
 14  1  2  0
 15  1  2  0
  7 16  1  1
 17  6  2  0
 18  9  1  0
 19 13  2  0
 20  3  1  0
 21  3  1  0
 22 13  1  0
 23 18  2  0
 24 18  1  0
 25 24  2  0
 26 23  1  0
 27 25  1  0
  7 28  1  6
  4 29  1  6
  2  5  1  0
  2  6  1  0
  9  8  1  0
 26 27  2  0
M  END

> <chembl_id>
CHEMBL6220

> <chembl_pref_name>
None

$$$$

     RDKit          2D

 21 22  0  0  1  0  0  0  0  0999 V2000
    7.7042   -5.3500    0.0000 S   0  0  0  0  0  0  0  0  0  0  0  0
    7.2292   -6.5917    0.0000 N   0  0  0  0  0  0  0  0  0  0  0  0
    8.3417   -5.8667    0.0000 C   0  0  0  0  0  0  0  0  0  0  0  0
    7.0167   -5.8000    0.0000 C   0  0  0  0  0  0  0  0  0  0  0  0
    8.0500   -6.6292    0.0000 C   0  0  0  0  0  0  0  0  0  0  0  0
    6.4292   -6.8042    0.0000 C   0  0  0  0  0  0  0  0  0  0  0  0
    6.2167   -6.0125    0.0000 C   0  0  0  0  0  0  0  0  0  0  0  0
    8.4542   -7.3417    0.0000 C   0  0  0  0  0  0  0  0  0  0  0  0
    7.1167   -4.7625    0.0000 O   0  0  0  0  0  0  0  0  0  0  0  0
    8.2875   -4.7625    0.0000 O   0  0  0  0  0  0  0  0  0  0  0  0
    2.6500   -6.4167    0.0000 N   0  0  0  0  0  0  0  0  0  0  0  0
    3.3667   -6.0125    0.0000 C   0  0  0  0  0  0  0  0  0  0  0  0
    6.0167   -7.5167    0.0000 O   0  0  0  0  0  0  0  0  0  0  0  0
    4.0792   -5.6000    0.0000 C   0  0  0  0  0  0  0  0  0  0  0  0
    9.2792   -7.3417    0.0000 O   0  0  0  0  0  0  0  0  0  0  0  0
    8.9292   -6.4500    0.0000 C   0  0  0  0  0  0  0  0  0  0  0  0
    9.0542   -5.4500    0.0000 C   0  0  0  0  0  0  0  0  0  0  0  0
    5.5042   -5.6000    0.0000 C   0  0  0  0  0  0  0  0  0  0  0  0
    4.7917   -6.0125    0.0000 C   0  0  0  0  0  0  0  0  0  0  0  0
    8.0417   -8.0542    0.0000 O   0  0  0  0  0  0  0  0  0  0  0  0
    6.4292   -5.2125    0.0000 H   0  0  0  0  0  0  0  0  0  0  0  0
  2  4  1  0
  3  1  1  0
  4  1  1  0
  5  3  1  0
  6  7  1  0
  7  4  1  0
  5  8  1  6
  9  1  2  0
 10  1  2  0
 11 12  3  0
 12 14  1  0
 13  6  2  0
 14 19  2  0
 15  8  2  0
 16  3  1  0
 17  3  1  0
 18  7  1  0
 19 18  1  0
 20  8  1  0
  4 21  1  1
  2  5  1  0
  2  6  1  0
M  END

> <chembl_id>
CHEMBL267626

> <chembl_pref_name>
None

$$$$

     RDKit          2D

 23 24  0  0  1  0  0  0  0  0999 V2000
    7.4750   -2.5417    0.0000 S   0  0  0  0  0  0  0  0  0  0  0  0
    7.0000   -3.7792    0.0000 N   0  0  0  0  0  0  0  0  0  0  0  0
    8.1167   -3.0542    0.0000 C   0  0  0  0  0  0  0  0  0  0  0  0
    6.7875   -2.9917    0.0000 C   0  0  0  0  0  0  0  0  0  0  0  0
    7.8167   -3.8250    0.0000 C   0  0  0  0  0  0  0  0  0  0  0  0
    6.2042   -4.0000    0.0000 C   0  0  0  0  0  0  0  0  0  0  0  0
    5.9917   -3.2042    0.0000 C   0  0  0  0  0  0  0  0  0  0  0  0
    8.2292   -4.5375    0.0000 C   0  0  0  0  0  0  0  0  0  0  0  0
    6.8875   -1.9542    0.0000 O   0  0  0  0  0  0  0  0  0  0  0  0
    8.0542   -1.9542    0.0000 O   0  0  0  0  0  0  0  0  0  0  0  0
    5.7875   -4.7125    0.0000 O   0  0  0  0  0  0  0  0  0  0  0  0
    3.1375   -3.2042    0.0000 C   0  0  0  0  0  0  0  0  0  0  0  0
    4.5625   -3.2042    0.0000 C   0  0  0  0  0  0  0  0  0  0  0  0
    3.8500   -2.7917    0.0000 C   0  0  0  0  0  0  0  0  0  0  0  0
    9.0542   -4.5375    0.0000 O   0  0  0  0  0  0  0  0  0  0  0  0
    5.2792   -2.7917    0.0000 C   0  0  0  0  0  0  0  0  0  0  0  0
    2.4167   -2.7917    0.0000 O   0  0  0  0  0  0  0  0  0  0  0  0
    8.7000   -3.6417    0.0000 C   0  0  0  0  0  0  0  0  0  0  0  0
    8.8292   -2.6417    0.0000 C   0  0  0  0  0  0  0  0  0  0  0  0
    7.8125   -5.2500    0.0000 O   0  0  0  0  0  0  0  0  0  0  0  0
    3.1375   -4.0292    0.0000 O   0  0  0  0  0  0  0  0  0  0  0  0
    2.4167   -4.4417    0.0000 C   0  0  0  0  0  0  0  0  0  0  0  0
    6.2000   -2.4042    0.0000 H   0  0  0  0  0  0  0  0  0  0  0  0
  2  4  1  0
  3  1  1  0
  4  1  1  0
  5  3  1  0
  6  7  1  0
  7  4  1  0
  5  8  1  6
  9  1  2  0
 10  1  2  0
 11  6  2  0
 12 14  1  0
 13 16  1  0
 14 13  2  0
 15  8  2  0
 16  7  1  0
 17 12  2  0
 18  3  1  0
 19  3  1  0
 20  8  1  0
 21 12  1  0
 22 21  1  0
  4 23  1  1
  2  5  1  0
  2  6  1  0
M  END

> <chembl_id>
CHEMBL6221

> <chembl_pref_name>
None

$$$$

     RDKit          2D

 30 32  0  0  0  0  0  0  0  0999 V2000
    5.2875   -2.7042    0.0000 C   0  0  0  0  0  0  0  0  0  0  0  0
    4.5792   -3.9542    0.0000 N   0  0  0  0  0  0  0  0  0  0  0  0
    3.8625   -2.7167    0.0000 C   0  0  0  0  0  0  0  0  0  0  0  0
    3.8625   -3.5417    0.0000 C   0  0  0  0  0  0  0  0  0  0  0  0
    4.5667   -2.3000    0.0000 C   0  0  0  0  0  0  0  0  0  0  0  0
    3.1417   -3.9542    0.0000 C   0  0  0  0  0  0  0  0  0  0  0  0
    5.2917   -3.5375    0.0000 C   0  0  0  0  0  0  0  0  0  0  0  0
    2.4292   -3.5417    0.0000 C   0  0  0  0  0  0  0  0  0  0  0  0
    1.7167   -3.9542    0.0000 N   0  0  0  0  0  0  0  0  0  0  0  0
    2.4292   -2.7167    0.0000 C   0  0  0  0  0  0  0  0  0  0  0  0
    3.1417   -2.3042    0.0000 C   0  0  0  0  0  0  0  0  0  0  0  0
    6.0000   -2.2917    0.0000 C   0  0  0  0  0  0  0  0  0  0  0  0
    5.2917   -5.1875    0.0000 C   0  0  0  0  0  0  0  0  0  0  0  0
    4.5792   -4.7792    0.0000 C   0  0  0  0  0  0  0  0  0  0  0  0
    0.9667   -3.6250    0.0000 C   0  0  0  0  0  0  0  0  0  0  0  0
    1.6292   -4.7792    0.0000 C   0  0  0  0  0  0  0  0  0  0  0  0
    4.5667   -1.4750    0.0000 O   0  0  0  0  0  0  0  0  0  0  0  0
    5.9917   -1.4667    0.0000 O   0  0  0  0  0  0  0  0  0  0  0  0
    3.1500   -4.7792    0.0000 F   0  0  0  0  0  0  0  0  0  0  0  0
    0.4167   -4.2375    0.0000 C   0  0  0  0  0  0  0  0  0  0  0  0
    1.7167   -2.3042    0.0000 F   0  0  0  0  0  0  0  0  0  0  0  0
    5.2917   -6.0125    0.0000 F   0  0  0  0  0  0  0  0  0  0  0  0
    6.0042   -4.7750    0.0000 F   0  0  0  0  0  0  0  0  0  0  0  0
    4.7125   -5.7750    0.0000 F   0  0  0  0  0  0  0  0  0  0  0  0
    6.7167   -2.7000    0.0000 O   0  0  0  0  0  0  0  0  0  0  0  0
    0.8250   -4.9542    0.0000 C   0  0  0  0  0  0  0  0  0  0  0  0
   -0.8958   -4.8167    0.0000 N   0  0  0  0  0  0  0  0  0  0  0  0
   -0.4083   -4.1500    0.0000 C   0  0  0  0  0  0  0  0  0  0  0  0
   -1.7125   -4.7292    0.0000 C   0  0  0  0  0  0  0  0  0  0  0  0
   -2.1958   -5.4000    0.0000 C   0  0  0  0  0  0  0  0  0  0  0  0
  2  7  1  0
  3  5  1  0
  4  2  1  0
  5  1  1  0
  6  4  2  0
  7  1  2  0
  8  6  1  0
  9  8  1  0
 10 11  1  0
 11  3  2  0
 12  1  1  0
 13 14  1  0
 14  2  1  0
 15  9  1  0
 16  9  1  0
 17  5  2  0
 18 12  2  0
 19  6  1  0
 20 15  1  0
 21 10  1  0
 22 13  1  0
 23 13  1  0
 24 13  1  0
 25 12  1  0
 26 16  1  0
 27 28  1  0
 28 20  1  0
 29 27  1  0
 30 29  1  0
  3  4  1  0
 10  8  2  0
 20 26  1  0
M  END

> <chembl_id>
CHEMBL265663

> <chembl_pref_name>
None

$$$$

     RDKit          2D

 29 33  0  0  0  0  0  0  0  0999 V2000
    0.1667   -0.7500    0.0000 C   0  0  0  0  0  0  0  0  0  0  0  0
    0.7542   -0.8500    0.0000 C   0  0  0  0  0  0  0  0  0  0  0  0
    1.0167   -1.3875    0.0000 C   0  0  0  0  0  0  0  0  0  0  0  0
   -0.1833   -1.2375    0.0000 C   0  0  0  0  0  0  0  0  0  0  0  0
    0.0792   -0.1542    0.0000 C   0  0  0  0  0  0  0  0  0  0  0  0
    1.0292   -0.3167    0.0000 C   0  0  0  0  0  0  0  0  0  0  0  0
    0.6125    0.1125    0.0000 N   0  0  0  0  0  0  0  0  0  0  0  0
    0.9167   -1.9792    0.0000 C   0  0  0  0  0  0  0  0  0  0  0  0
    0.0042   -1.8042    0.0000 C   0  0  0  0  0  0  0  0  0  0  0  0
    1.4417   -2.2542    0.0000 N   0  0  0  0  0  0  0  0  0  0  0  0
   -0.4833   -2.1625    0.0000 N   0  0  0  0  0  0  0  0  0  0  0  0
   -0.7875   -1.2375    0.0000 C   0  0  0  0  0  0  0  0  0  0  0  0
    1.6167   -1.3042    0.0000 C   0  0  0  0  0  0  0  0  0  0  0  0
    1.8792   -1.8417    0.0000 C   0  0  0  0  0  0  0  0  0  0  0  0
   -0.9708   -1.8125    0.0000 C   0  0  0  0  0  0  0  0  0  0  0  0
    1.6292   -0.2292    0.0000 O   0  0  0  0  0  0  0  0  0  0  0  0
   -0.4583    0.1208    0.0000 O   0  0  0  0  0  0  0  0  0  0  0  0
   -0.4833   -2.7625    0.0000 C   0  0  0  0  0  0  0  0  0  0  0  0
    1.5292   -2.8542    0.0000 C   0  0  0  0  0  0  0  0  0  0  0  0
   -1.1958   -0.7917    0.0000 C   0  0  0  0  0  0  0  0  0  0  0  0
    1.9417   -0.8042    0.0000 C   0  0  0  0  0  0  0  0  0  0  0  0
    2.4750   -1.8792    0.0000 C   0  0  0  0  0  0  0  0  0  0  0  0
   -1.5583   -1.9375    0.0000 C   0  0  0  0  0  0  0  0  0  0  0  0
   -0.9958   -3.6667    0.0000 O   0  0  0  0  0  0  0  0  0  0  0  0
   -0.9958   -3.0667    0.0000 C   0  0  0  0  0  0  0  0  0  0  0  0
    2.5417   -0.8417    0.0000 C   0  0  0  0  0  0  0  0  0  0  0  0
   -1.7833   -0.9167    0.0000 C   0  0  0  0  0  0  0  0  0  0  0  0
   -1.9583   -1.4875    0.0000 C   0  0  0  0  0  0  0  0  0  0  0  0
    2.8042   -1.3875    0.0000 C   0  0  0  0  0  0  0  0  0  0  0  0
  2  1  2  0
  3  2  1  0
  4  1  1  0
  5  1  1  0
  6  2  1  0
  7  5  1  0
  8  3  2  0
  9  4  2  0
 10  8  1  0
 11  9  1  0
 12  4  1  0
 13  3  1  0
 14 13  2  0
 15 12  2  0
 16  6  2  0
 17  5  2  0
 18 11  1  0
 19 10  1  0
 20 12  1  0
 21 13  1  0
 22 14  1  0
 23 15  1  0
 24 25  1  0
 25 18  1  0
 26 21  2  0
 27 20  2  0
 28 27  1  0
 29 26  1  0
  7  6  1  0
 11 15  1  0
 14 10  1  0
 28 23  2  0
 29 22  2  0
M  END

> <chembl_id>
CHEMBL268292

> <chembl_pref_name>
None

$$$$

     RDKit          2D

 30 34  0  0  0  0  0  0  0  0999 V2000
    0.0250   -0.8042    0.0000 C   0  0  0  0  0  0  0  0  0  0  0  0
    0.6250   -0.8000    0.0000 C   0  0  0  0  0  0  0  0  0  0  0  0
    0.9792   -1.2792    0.0000 C   0  0  0  0  0  0  0  0  0  0  0  0
   -0.2333   -1.3542    0.0000 C   0  0  0  0  0  0  0  0  0  0  0  0
   -0.1708   -0.2417    0.0000 C   0  0  0  0  0  0  0  0  0  0  0  0
    0.8000   -0.2167    0.0000 C   0  0  0  0  0  0  0  0  0  0  0  0
    0.3042    0.1208    0.0000 N   0  0  0  0  0  0  0  0  0  0  0  0
    0.9875   -1.8792    0.0000 C   0  0  0  0  0  0  0  0  0  0  0  0
    0.0542   -1.8792    0.0000 C   0  0  0  0  0  0  0  0  0  0  0  0
   -0.3583   -2.3167    0.0000 N   0  0  0  0  0  0  0  0  0  0  0  0
    1.5542   -2.0625    0.0000 N   0  0  0  0  0  0  0  0  0  0  0  0
   -0.8250   -1.4667    0.0000 C   0  0  0  0  0  0  0  0  0  0  0  0
    1.5500   -1.0917    0.0000 C   0  0  0  0  0  0  0  0  0  0  0  0
    1.9042   -1.5667    0.0000 C   0  0  0  0  0  0  0  0  0  0  0  0
   -0.9000   -2.0625    0.0000 C   0  0  0  0  0  0  0  0  0  0  0  0
    1.3667   -0.0292    0.0000 O   0  0  0  0  0  0  0  0  0  0  0  0
   -0.7458   -0.0667    0.0000 O   0  0  0  0  0  0  0  0  0  0  0  0
   -0.2458   -2.9042    0.0000 C   0  0  0  0  0  0  0  0  0  0  0  0
    1.7500   -2.6292    0.0000 C   0  0  0  0  0  0  0  0  0  0  0  0
   -1.3083   -1.1000    0.0000 C   0  0  0  0  0  0  0  0  0  0  0  0
    1.7875   -0.5417    0.0000 C   0  0  0  0  0  0  0  0  0  0  0  0
   -0.6958   -3.3000    0.0000 C   0  0  0  0  0  0  0  0  0  0  0  0
   -1.4583   -2.2917    0.0000 C   0  0  0  0  0  0  0  0  0  0  0  0
    2.5000   -1.5042    0.0000 C   0  0  0  0  0  0  0  0  0  0  0  0
   -1.0375   -4.2792    0.0000 O   0  0  0  0  0  0  0  0  0  0  0  0
   -0.5833   -3.8875    0.0000 C   0  0  0  0  0  0  0  0  0  0  0  0
   -1.8583   -1.3292    0.0000 C   0  0  0  0  0  0  0  0  0  0  0  0
    2.3792   -0.4667    0.0000 C   0  0  0  0  0  0  0  0  0  0  0  0
    2.7417   -0.9542    0.0000 C   0  0  0  0  0  0  0  0  0  0  0  0
   -1.9333   -1.9250    0.0000 C   0  0  0  0  0  0  0  0  0  0  0  0
  2  1  2  0
  3  2  1  0
  4  1  1  0
  5  1  1  0
  6  2  1  0
  7  5  1  0
  8  3  2  0
  9  4  2  0
 10  9  1  0
 11  8  1  0
 12  4  1  0
 13  3  1  0
 14 13  2  0
 15 12  2  0
 16  6  2  0
 17  5  2  0
 18 10  1  0
 19 11  1  0
 20 12  1  0
 21 13  1  0
 22 18  1  0
 23 15  1  0
 24 14  1  0
 25 26  1  0
 26 22  1  0
 27 20  2  0
 28 21  2  0
 29 28  1  0
 30 27  1  0
  7  6  1  0
 10 15  1  0
 14 11  1  0
 30 23  2  0
 29 24  2  0
M  END

> <chembl_id>
CHEMBL6205

> <chembl_pref_name>
None

$$$$

     RDKit          2D

 31 35  0  0  0  0  0  0  0  0999 V2000
    0.0250   -0.8042    0.0000 C   0  0  0  0  0  0  0  0  0  0  0  0
    0.6250   -0.8000    0.0000 C   0  0  0  0  0  0  0  0  0  0  0  0
    0.9792   -1.2792    0.0000 C   0  0  0  0  0  0  0  0  0  0  0  0
   -0.2333   -1.3542    0.0000 C   0  0  0  0  0  0  0  0  0  0  0  0
   -0.1708   -0.2417    0.0000 C   0  0  0  0  0  0  0  0  0  0  0  0
    0.8000   -0.2167    0.0000 C   0  0  0  0  0  0  0  0  0  0  0  0
    0.3042    0.1208    0.0000 N   0  0  0  0  0  0  0  0  0  0  0  0
    0.9875   -1.8792    0.0000 C   0  0  0  0  0  0  0  0  0  0  0  0
    0.0542   -1.8792    0.0000 C   0  0  0  0  0  0  0  0  0  0  0  0
    1.5542   -2.0625    0.0000 N   0  0  0  0  0  0  0  0  0  0  0  0
   -0.3583   -2.3167    0.0000 N   0  0  0  0  0  0  0  0  0  0  0  0
   -0.8250   -1.4667    0.0000 C   0  0  0  0  0  0  0  0  0  0  0  0
    1.5500   -1.0917    0.0000 C   0  0  0  0  0  0  0  0  0  0  0  0
    1.9042   -1.5667    0.0000 C   0  0  0  0  0  0  0  0  0  0  0  0
   -0.9000   -2.0625    0.0000 C   0  0  0  0  0  0  0  0  0  0  0  0
    1.3667   -0.0292    0.0000 O   0  0  0  0  0  0  0  0  0  0  0  0
   -0.7458   -0.0667    0.0000 O   0  0  0  0  0  0  0  0  0  0  0  0
   -0.2458   -2.9042    0.0000 C   0  0  0  0  0  0  0  0  0  0  0  0
    1.7500   -2.6292    0.0000 C   0  0  0  0  0  0  0  0  0  0  0  0
   -1.3083   -1.1000    0.0000 C   0  0  0  0  0  0  0  0  0  0  0  0
    1.7875   -0.5417    0.0000 C   0  0  0  0  0  0  0  0  0  0  0  0
    2.5000   -1.5042    0.0000 C   0  0  0  0  0  0  0  0  0  0  0  0
   -1.4583   -2.2917    0.0000 C   0  0  0  0  0  0  0  0  0  0  0  0
   -0.9250   -4.8667    0.0000 O   0  0  0  0  0  0  0  0  0  0  0  0
   -1.0375   -4.2792    0.0000 C   0  0  0  0  0  0  0  0  0  0  0  0
   -0.6958   -3.3000    0.0000 C   0  0  0  0  0  0  0  0  0  0  0  0
   -0.5833   -3.8875    0.0000 C   0  0  0  0  0  0  0  0  0  0  0  0
    2.3792   -0.4667    0.0000 C   0  0  0  0  0  0  0  0  0  0  0  0
   -1.8583   -1.3292    0.0000 C   0  0  0  0  0  0  0  0  0  0  0  0
   -1.9333   -1.9250    0.0000 C   0  0  0  0  0  0  0  0  0  0  0  0
    2.7417   -0.9542    0.0000 C   0  0  0  0  0  0  0  0  0  0  0  0
  2  1  2  0
  3  2  1  0
  4  1  1  0
  5  1  1  0
  6  2  1  0
  7  5  1  0
  8  3  2  0
  9  4  2  0
 10  8  1  0
 11  9  1  0
 12  4  1  0
 13  3  1  0
 14 13  2  0
 15 12  2  0
 16  6  2  0
 17  5  2  0
 18 11  1  0
 19 10  1  0
 20 12  1  0
 21 13  1  0
 22 14  1  0
 23 15  1  0
 24 25  1  0
 25 27  1  0
 26 18  1  0
 27 26  1  0
 28 21  2  0
 29 20  2  0
 30 29  1  0
 31 28  1  0
  7  6  1  0
 11 15  1  0
 14 10  1  0
 30 23  2  0
 31 22  2  0
M  END

> <chembl_id>
CHEMBL441172

> <chembl_pref_name>
None

$$$$

     RDKit          2D

 32 36  0  0  0  0  0  0  0  0999 V2000
    0.0250   -0.8042    0.0000 C   0  0  0  0  0  0  0  0  0  0  0  0
    0.6250   -0.8000    0.0000 C   0  0  0  0  0  0  0  0  0  0  0  0
    0.9792   -1.2792    0.0000 C   0  0  0  0  0  0  0  0  0  0  0  0
   -0.2333   -1.3542    0.0000 C   0  0  0  0  0  0  0  0  0  0  0  0
   -0.1708   -0.2417    0.0000 C   0  0  0  0  0  0  0  0  0  0  0  0
    0.8000   -0.2167    0.0000 C   0  0  0  0  0  0  0  0  0  0  0  0
    0.3042    0.1208    0.0000 N   0  0  0  0  0  0  0  0  0  0  0  0
    0.9875   -1.8792    0.0000 C   0  0  0  0  0  0  0  0  0  0  0  0
    0.0542   -1.8792    0.0000 C   0  0  0  0  0  0  0  0  0  0  0  0
    1.5542   -2.0625    0.0000 N   0  0  0  0  0  0  0  0  0  0  0  0
   -0.3583   -2.3167    0.0000 N   0  0  0  0  0  0  0  0  0  0  0  0
   -0.8250   -1.4667    0.0000 C   0  0  0  0  0  0  0  0  0  0  0  0
    1.5500   -1.0917    0.0000 C   0  0  0  0  0  0  0  0  0  0  0  0
    1.9042   -1.5667    0.0000 C   0  0  0  0  0  0  0  0  0  0  0  0
   -0.9000   -2.0625    0.0000 C   0  0  0  0  0  0  0  0  0  0  0  0
    1.3667   -0.0292    0.0000 O   0  0  0  0  0  0  0  0  0  0  0  0
   -0.7458   -0.0667    0.0000 O   0  0  0  0  0  0  0  0  0  0  0  0
   -0.2458   -2.9042    0.0000 C   0  0  0  0  0  0  0  0  0  0  0  0
    1.7500   -2.6292    0.0000 C   0  0  0  0  0  0  0  0  0  0  0  0
   -1.3083   -1.1000    0.0000 C   0  0  0  0  0  0  0  0  0  0  0  0
    1.7875   -0.5417    0.0000 C   0  0  0  0  0  0  0  0  0  0  0  0
    2.5000   -1.5042    0.0000 C   0  0  0  0  0  0  0  0  0  0  0  0
   -1.4583   -2.2917    0.0000 C   0  0  0  0  0  0  0  0  0  0  0  0
   -1.3833   -5.2625    0.0000 O   0  0  0  0  0  0  0  0  0  0  0  0
   -0.9250   -4.8667    0.0000 C   0  0  0  0  0  0  0  0  0  0  0  0
   -0.6958   -3.3000    0.0000 C   0  0  0  0  0  0  0  0  0  0  0  0
   -1.0375   -4.2792    0.0000 C   0  0  0  0  0  0  0  0  0  0  0  0
   -0.5833   -3.8875    0.0000 C   0  0  0  0  0  0  0  0  0  0  0  0
   -1.8583   -1.3292    0.0000 C   0  0  0  0  0  0  0  0  0  0  0  0
    2.3792   -0.4667    0.0000 C   0  0  0  0  0  0  0  0  0  0  0  0
    2.7417   -0.9542    0.0000 C   0  0  0  0  0  0  0  0  0  0  0  0
   -1.9333   -1.9250    0.0000 C   0  0  0  0  0  0  0  0  0  0  0  0
  2  1  2  0
  3  2  1  0
  4  1  1  0
  5  1  1  0
  6  2  1  0
  7  5  1  0
  8  3  2  0
  9  4  2  0
 10  8  1  0
 11  9  1  0
 12  4  1  0
 13  3  1  0
 14 13  2  0
 15 12  2  0
 16  6  2  0
 17  5  2  0
 18 11  1  0
 19 10  1  0
 20 12  1  0
 21 13  1  0
 22 14  1  0
 23 15  1  0
 24 25  1  0
 25 27  1  0
 26 18  1  0
 27 28  1  0
 28 26  1  0
 29 20  2  0
 30 21  2  0
 31 30  1  0
 32 29  1  0
  7  6  1  0
 11 15  1  0
 14 10  1  0
 32 23  2  0
 31 22  2  0
M  END

> <chembl_id>
CHEMBL6199

> <chembl_pref_name>
None

$$$$

     RDKit          2D

 31 35  0  0  0  0  0  0  0  0999 V2000
    9.4167    2.0083    0.0000 C   0  0  0  0  0  0  0  0  0  0  0  0
   10.0167    2.0000    0.0000 C   0  0  0  0  0  0  0  0  0  0  0  0
   10.3625    1.5125    0.0000 C   0  0  0  0  0  0  0  0  0  0  0  0
    9.1500    1.4708    0.0000 C   0  0  0  0  0  0  0  0  0  0  0  0
    9.2375    2.5833    0.0000 C   0  0  0  0  0  0  0  0  0  0  0  0
   10.2042    2.5708    0.0000 C   0  0  0  0  0  0  0  0  0  0  0  0
    9.7167    2.9250    0.0000 N   0  0  0  0  0  0  0  0  0  0  0  0
   10.3542    0.9083    0.0000 C   0  0  0  0  0  0  0  0  0  0  0  0
    9.4250    0.9333    0.0000 C   0  0  0  0  0  0  0  0  0  0  0  0
    9.0042    0.5083    0.0000 N   0  0  0  0  0  0  0  0  0  0  0  0
   10.9250    0.7208    0.0000 N   0  0  0  0  0  0  0  0  0  0  0  0
    8.5542    1.3708    0.0000 C   0  0  0  0  0  0  0  0  0  0  0  0
   10.9375    1.6875    0.0000 C   0  0  0  0  0  0  0  0  0  0  0  0
   11.2792    1.1958    0.0000 C   0  0  0  0  0  0  0  0  0  0  0  0
    8.4667    0.7708    0.0000 C   0  0  0  0  0  0  0  0  0  0  0  0
   10.7792    2.7500    0.0000 O   0  0  0  0  0  0  0  0  0  0  0  0
    8.6667    2.7708    0.0000 O   0  0  0  0  0  0  0  0  0  0  0  0
    9.1000   -0.0875    0.0000 C   0  0  0  0  0  0  0  0  0  0  0  0
   11.1000    0.1458    0.0000 C   0  0  0  0  0  0  0  0  0  0  0  0
    8.2750   -1.4417    0.0000 N   0  0  0  0  0  0  0  0  0  0  0  0
    8.0792    1.7458    0.0000 C   0  0  0  0  0  0  0  0  0  0  0  0
   11.1792    2.2333    0.0000 C   0  0  0  0  0  0  0  0  0  0  0  0
    8.6375   -0.4667    0.0000 C   0  0  0  0  0  0  0  0  0  0  0  0
    7.9042    0.5583    0.0000 C   0  0  0  0  0  0  0  0  0  0  0  0
   11.8792    1.2583    0.0000 C   0  0  0  0  0  0  0  0  0  0  0  0
    8.7375   -1.0625    0.0000 C   0  0  0  0  0  0  0  0  0  0  0  0
    8.2667   -2.0417    0.0000 C   0  0  0  0  0  0  0  0  0  0  0  0
   11.7792    2.2875    0.0000 C   0  0  0  0  0  0  0  0  0  0  0  0
    7.5250    1.5250    0.0000 C   0  0  0  0  0  0  0  0  0  0  0  0
    7.4375    0.9333    0.0000 C   0  0  0  0  0  0  0  0  0  0  0  0
   12.1292    1.7958    0.0000 C   0  0  0  0  0  0  0  0  0  0  0  0
  2  1  2  0
  3  2  1  0
  4  1  1  0
  5  1  1  0
  6  2  1  0
  7  5  1  0
  8  3  2  0
  9  4  2  0
 10  9  1  0
 11  8  1  0
 12  4  1  0
 13  3  1  0
 14 13  2  0
 15 12  2  0
 16  6  2  0
 17  5  2  0
 18 10  1  0
 19 11  1  0
 20 26  1  0
 21 12  1  0
 22 13  1  0
 23 18  1  0
 24 15  1  0
 25 14  1  0
 26 23  1  0
 27 20  1  0
 28 22  2  0
 29 21  2  0
 30 29  1  0
 31 28  1  0
  7  6  1  0
 10 15  1  0
 14 11  1  0
 30 24  2  0
 31 25  2  0
M  END

> <chembl_id>
CHEMBL429244

> <chembl_pref_name>
None

$$$$

     RDKit          2D

 22 25  0  0  0  0  0  0  0  0999 V2000
    3.5770  -11.2803    0.0000 N   0  0  0  0  0  0  0  0  0  0  0  0
    4.2545  -11.7584    0.0000 C   0  0  0  0  0  0  0  0  0  0  0  0
    4.9190  -11.2622    0.0000 C   0  0  0  0  0  0  0  0  0  0  0  0
    3.8252  -10.4872    0.0000 C   0  0  0  0  0  0  0  0  0  0  0  0
    4.6500  -10.4728    0.0000 N   0  0  0  0  0  0  0  0  0  0  0  0
    4.8913   -9.6840    0.0000 C   0  0  0  0  0  0  0  0  0  0  0  0
    4.2155   -9.2107    0.0000 C   0  0  0  0  0  0  0  0  0  0  0  0
    3.5567   -9.7071    0.0000 C   0  0  0  0  0  0  0  0  0  0  0  0
    5.6332  -11.6672    0.0000 C   0  0  0  0  0  0  0  0  0  0  0  0
    5.6373  -12.4936    0.0000 C   0  0  0  0  0  0  0  0  0  0  0  0
    6.3538  -12.9014    0.0000 C   0  0  0  0  0  0  0  0  0  0  0  0
    7.0667  -12.4841    0.0000 C   0  0  0  0  0  0  0  0  0  0  0  0
    7.0587  -11.6546    0.0000 C   0  0  0  0  0  0  0  0  0  0  0  0
    6.3416  -11.2505    0.0000 C   0  0  0  0  0  0  0  0  0  0  0  0
    4.2647  -12.5799    0.0000 C   0  0  0  0  0  0  0  0  0  0  0  0
    3.5540  -13.0017    0.0000 N   0  0  0  0  0  0  0  0  0  0  0  0
    3.5649  -13.8261    0.0000 C   0  0  0  0  0  0  0  0  0  0  0  0
    4.2857  -14.2297    0.0000 C   0  0  0  0  0  0  0  0  0  0  0  0
    4.9970  -13.8030    0.0000 C   0  0  0  0  0  0  0  0  0  0  0  0
    4.9826  -12.9800    0.0000 C   0  0  0  0  0  0  0  0  0  0  0  0
    7.7846  -12.8910    0.0000 O   0  0  0  0  0  0  0  0  0  0  0  0
    7.7911  -13.7163    0.0000 C   0  0  0  0  0  0  0  0  0  0  0  0
 10 11  1  0
  4  1  2  0
 11 12  2  0
  2  3  2  0
 12 13  1  0
  3  5  1  0
 13 14  2  0
 14  9  1  0
  3  9  1  0
  5  6  1  0
  6  7  1  0
 15 16  2  0
  7  8  1  0
 16 17  1  0
  8  4  1  0
 17 18  2  0
  4  5  1  0
 18 19  1  0
  1  2  1  0
 19 20  2  0
 20 15  1  0
  2 15  1  0
  9 10  2  0
 12 21  1  0
 21 22  1  0
M  END

> <chembl_id>
CHEMBL6204

> <chembl_pref_name>
None

$$$$

     RDKit          2D

 18 20  0  0  0  0  0  0  0  0999 V2000
   -2.5809   -0.8086    0.0000 C   0  0  0  0  0  0  0  0  0  0  0  0
   -2.1684   -0.0941    0.0000 C   0  0  0  0  0  0  0  0  0  0  0  0
   -1.3434   -0.0941    0.0000 C   0  0  0  0  0  0  0  0  0  0  0  0
   -0.8585    0.5733    0.0000 C   0  0  0  0  0  0  0  0  0  0  0  0
   -0.0738    0.3184    0.0000 C   0  0  0  0  0  0  0  0  0  0  0  0
    0.6406    0.7309    0.0000 C   0  0  0  0  0  0  0  0  0  0  0  0
    0.6406    1.5559    0.0000 S   0  0  0  0  0  0  0  0  0  0  0  0
   -0.0738    1.9684    0.0000 C   0  0  0  0  0  0  0  0  0  0  0  0
   -0.8275    1.6328    0.0000 N   0  0  0  0  0  0  0  0  0  0  0  0
   -1.3795    2.2459    0.0000 N   0  0  0  0  0  0  0  0  0  0  0  0
   -0.9670    2.9604    0.0000 C   0  0  0  0  0  0  0  0  0  0  0  0
   -1.3026    3.7141    0.0000 N   0  0  0  0  0  0  0  0  0  0  0  0
   -0.1601    2.7889    0.0000 S   0  0  0  0  0  0  0  0  0  0  0  0
    1.3551    0.3184    0.0000 N   0  0  0  0  0  0  0  0  0  0  0  0
    1.3551   -0.5066    0.0000 C   0  0  0  0  0  0  0  0  0  0  0  0
    0.6406   -0.9191    0.0000 N   0  0  0  0  0  0  0  0  0  0  0  0
   -0.0738   -0.5066    0.0000 C   0  0  0  0  0  0  0  0  0  0  0  0
   -0.8585   -0.7615    0.0000 S   0  0  0  0  0  0  0  0  0  0  0  0
  1  2  1  0
  2  3  1  0
  3  4  2  0
  4  5  1  0
  5  6  2  0
  6  7  1  0
  7  8  1  0
  8  9  2  0
  9 10  1  0
 10 11  2  0
 11 12  1  0
 11 13  1  0
 13  8  1  0
  6 14  1  0
 14 15  2  0
 15 16  1  0
 16 17  2  0
 17  5  1  0
 17 18  1  0
 18  3  1  0
M  END

> <chembl_id>
CHEMBL6229

> <chembl_pref_name>
None

$$$$

     RDKit          2D

 24 26  0  0  0  0  0  0  0  0999 V2000
    1.9625   -1.2125    0.0000 C   0  0  0  0  0  0  0  0  0  0  0  0
    0.7292   -1.2125    0.0000 C   0  0  0  0  0  0  0  0  0  0  0  0
    1.3417   -0.8542    0.0000 C   0  0  0  0  0  0  0  0  0  0  0  0
    1.3417   -2.2750    0.0000 N   0  0  0  0  0  0  0  0  0  0  0  0
    0.7292   -1.9167    0.0000 C   0  0  0  0  0  0  0  0  0  0  0  0
    1.9625   -1.9167    0.0000 C   0  0  0  0  0  0  0  0  0  0  0  0
    0.1167   -2.2750    0.0000 C   0  0  0  0  0  0  0  0  0  0  0  0
   -0.5000   -1.9167    0.0000 C   0  0  0  0  0  0  0  0  0  0  0  0
    0.1167   -0.8542    0.0000 C   0  0  0  0  0  0  0  0  0  0  0  0
   -1.1125   -2.2750    0.0000 N   0  0  0  0  0  0  0  0  0  0  0  0
    2.5792   -0.8542    0.0000 C   0  0  0  0  0  0  0  0  0  0  0  0
   -0.5000   -1.2125    0.0000 C   0  0  0  0  0  0  0  0  0  0  0  0
   -2.3458   -2.9917    0.0000 N   0  0  0  0  0  0  0  0  0  0  0  0
    1.3417   -0.1417    0.0000 O   0  0  0  0  0  0  0  0  0  0  0  0
    1.3417   -2.9792    0.0000 N   0  0  0  0  0  0  0  0  0  0  0  0
   -1.7250   -1.9167    0.0000 C   0  0  0  0  0  0  0  0  0  0  0  0
   -1.1125   -2.9917    0.0000 C   0  0  0  0  0  0  0  0  0  0  0  0
    2.5792   -0.1417    0.0000 O   0  0  0  0  0  0  0  0  0  0  0  0
   -1.7250   -3.3417    0.0000 C   0  0  0  0  0  0  0  0  0  0  0  0
   -2.3458   -2.2750    0.0000 C   0  0  0  0  0  0  0  0  0  0  0  0
   -1.1208   -0.8542    0.0000 F   0  0  0  0  0  0  0  0  0  0  0  0
    3.1917   -1.2125    0.0000 O   0  0  0  0  0  0  0  0  0  0  0  0
   -2.9583   -3.3500    0.0000 C   0  0  0  0  0  0  0  0  0  0  0  0
    1.9542   -3.3375    0.0000 C   0  0  0  0  0  0  0  0  0  0  0  0
  2  3  1  0
  3  1  1  0
  4  6  1  0
  5  2  2  0
  6  1  2  0
  7  5  1  0
  8 12  1  0
  9  2  1  0
 10  8  1  0
 11  1  1  0
 12  9  2  0
 13 20  1  0
 14  3  2  0
 15  4  1  0
 16 10  1  0
 17 10  1  0
 18 11  2  0
 19 17  1  0
 20 16  1  0
 21 12  1  0
 22 11  1  0
 23 13  1  0
 24 15  1  0
  5  4  1  0
  7  8  2  0
 19 13  1  0
M  END

> <chembl_id>
CHEMBL6231

> <chembl_pref_name>
AMIFLOXACIN

$$$$

     RDKit          2D

 12 13  0  0  0  0  0  0  0  0999 V2000
    2.4250   -5.5542    0.0000 C   0  0  0  0  0  0  0  0  0  0  0  0
    2.4292   -6.3792    0.0000 C   0  0  0  0  0  0  0  0  0  0  0  0
    3.2167   -6.6292    0.0000 S   0  0  0  0  0  0  0  0  0  0  0  0
    3.2042   -5.2917    0.0000 C   0  0  0  0  0  0  0  0  0  0  0  0
    1.7042   -5.1417    0.0000 C   0  0  0  0  0  0  0  0  0  0  0  0
    1.7042   -6.8000    0.0000 N   0  0  0  0  0  0  0  0  0  0  0  0
    3.7000   -5.9625    0.0000 C   0  0  0  0  0  0  0  0  0  0  0  0
    0.9917   -5.5625    0.0000 N   0  0  0  0  0  0  0  0  0  0  0  0
    0.9917   -6.3875    0.0000 C   0  0  0  0  0  0  0  0  0  0  0  0
    1.7042   -4.3167    0.0000 O   0  0  0  0  0  0  0  0  0  0  0  0
    4.5250   -5.9542    0.0000 C   0  0  0  0  0  0  0  0  0  0  0  0
    4.9292   -5.2417    0.0000 C   0  0  0  0  0  0  0  0  0  0  0  0
  2  1  1  0
  3  2  1  0
  4  1  1  0
  5  1  2  0
  6  2  2  0
  7  4  2  0
  8  5  1  0
  9  8  2  0
 10  5  1  0
 11  7  1  0
 12 11  1  0
  3  7  1  0
  6  9  1  0
M  END

> <chembl_id>
CHEMBL6215

> <chembl_pref_name>
None

$$$$

     RDKit          2D

 32 36  0  0  0  0  0  0  0  0999 V2000
    0.0250   -0.8042    0.0000 C   0  0  0  0  0  0  0  0  0  0  0  0
    0.6250   -0.8000    0.0000 C   0  0  0  0  0  0  0  0  0  0  0  0
    0.9792   -1.2792    0.0000 C   0  0  0  0  0  0  0  0  0  0  0  0
   -0.2333   -1.3542    0.0000 C   0  0  0  0  0  0  0  0  0  0  0  0
   -0.1708   -0.2417    0.0000 C   0  0  0  0  0  0  0  0  0  0  0  0
    0.8000   -0.2167    0.0000 C   0  0  0  0  0  0  0  0  0  0  0  0
    0.3042    0.1208    0.0000 N   0  0  0  0  0  0  0  0  0  0  0  0
    0.9875   -1.8792    0.0000 C   0  0  0  0  0  0  0  0  0  0  0  0
    0.0542   -1.8792    0.0000 C   0  0  0  0  0  0  0  0  0  0  0  0
    1.5542   -2.0625    0.0000 N   0  0  0  0  0  0  0  0  0  0  0  0
   -0.3583   -2.3167    0.0000 N   0  0  0  0  0  0  0  0  0  0  0  0
   -0.8250   -1.4667    0.0000 C   0  0  0  0  0  0  0  0  0  0  0  0
    1.5500   -1.0917    0.0000 C   0  0  0  0  0  0  0  0  0  0  0  0
    1.9042   -1.5667    0.0000 C   0  0  0  0  0  0  0  0  0  0  0  0
   -0.9000   -2.0625    0.0000 C   0  0  0  0  0  0  0  0  0  0  0  0
    1.3667   -0.0292    0.0000 O   0  0  0  0  0  0  0  0  0  0  0  0
   -0.7458   -0.0667    0.0000 O   0  0  0  0  0  0  0  0  0  0  0  0
   -0.2458   -2.9042    0.0000 C   0  0  0  0  0  0  0  0  0  0  0  0
    1.7500   -2.6292    0.0000 C   0  0  0  0  0  0  0  0  0  0  0  0
   -1.3083   -1.1000    0.0000 C   0  0  0  0  0  0  0  0  0  0  0  0
    1.7875   -0.5417    0.0000 C   0  0  0  0  0  0  0  0  0  0  0  0
   -1.3833   -5.2625    0.0000 N   0  0  0  0  0  0  0  0  0  0  0  0
   -1.4583   -2.2917    0.0000 C   0  0  0  0  0  0  0  0  0  0  0  0
    2.5000   -1.5042    0.0000 C   0  0  0  0  0  0  0  0  0  0  0  0
   -0.9250   -4.8667    0.0000 C   0  0  0  0  0  0  0  0  0  0  0  0
   -0.6958   -3.3000    0.0000 C   0  0  0  0  0  0  0  0  0  0  0  0
   -1.0375   -4.2792    0.0000 C   0  0  0  0  0  0  0  0  0  0  0  0
   -0.5833   -3.8875    0.0000 C   0  0  0  0  0  0  0  0  0  0  0  0
   -1.8583   -1.3292    0.0000 C   0  0  0  0  0  0  0  0  0  0  0  0
    2.3792   -0.4667    0.0000 C   0  0  0  0  0  0  0  0  0  0  0  0
    2.7417   -0.9542    0.0000 C   0  0  0  0  0  0  0  0  0  0  0  0
   -1.9333   -1.9250    0.0000 C   0  0  0  0  0  0  0  0  0  0  0  0
  2  1  2  0
  3  2  1  0
  4  1  1  0
  5  1  1  0
  6  2  1  0
  7  5  1  0
  8  3  2  0
  9  4  2  0
 10  8  1  0
 11  9  1  0
 12  4  1  0
 13  3  1  0
 14 13  2  0
 15 12  2  0
 16  6  2  0
 17  5  2  0
 18 11  1  0
 19 10  1  0
 20 12  1  0
 21 13  1  0
 22 25  1  0
 23 15  1  0
 24 14  1  0
 25 27  1  0
 26 18  1  0
 27 28  1  0
 28 26  1  0
 29 20  2  0
 30 21  2  0
 31 30  1  0
 32 29  1  0
  7  6  1  0
 11 15  1  0
 14 10  1  0
 32 23  2  0
 31 24  2  0
M  END

> <chembl_id>
CHEMBL6235

> <chembl_pref_name>
None

$$$$

     RDKit          2D

 31 35  0  0  0  0  0  0  0  0999 V2000
    0.0250   -0.8042    0.0000 C   0  0  0  0  0  0  0  0  0  0  0  0
    0.6250   -0.8000    0.0000 C   0  0  0  0  0  0  0  0  0  0  0  0
    0.9792   -1.2792    0.0000 C   0  0  0  0  0  0  0  0  0  0  0  0
   -0.2333   -1.3542    0.0000 C   0  0  0  0  0  0  0  0  0  0  0  0
   -0.1708   -0.2417    0.0000 C   0  0  0  0  0  0  0  0  0  0  0  0
    0.8000   -0.2167    0.0000 C   0  0  0  0  0  0  0  0  0  0  0  0
    0.3042    0.1208    0.0000 N   0  0  0  0  0  0  0  0  0  0  0  0
    0.9875   -1.8792    0.0000 C   0  0  0  0  0  0  0  0  0  0  0  0
    0.0542   -1.8792    0.0000 C   0  0  0  0  0  0  0  0  0  0  0  0
    1.5542   -2.0625    0.0000 N   0  0  0  0  0  0  0  0  0  0  0  0
   -0.3583   -2.3167    0.0000 N   0  0  0  0  0  0  0  0  0  0  0  0
   -0.8250   -1.4667    0.0000 C   0  0  0  0  0  0  0  0  0  0  0  0
    1.5500   -1.0917    0.0000 C   0  0  0  0  0  0  0  0  0  0  0  0
    1.9042   -1.5667    0.0000 C   0  0  0  0  0  0  0  0  0  0  0  0
   -0.9000   -2.0625    0.0000 C   0  0  0  0  0  0  0  0  0  0  0  0
    1.3667   -0.0292    0.0000 O   0  0  0  0  0  0  0  0  0  0  0  0
   -0.7458   -0.0667    0.0000 O   0  0  0  0  0  0  0  0  0  0  0  0
   -0.2458   -2.9042    0.0000 C   0  0  0  0  0  0  0  0  0  0  0  0
    1.7500   -2.6292    0.0000 C   0  0  0  0  0  0  0  0  0  0  0  0
   -1.3083   -1.1000    0.0000 C   0  0  0  0  0  0  0  0  0  0  0  0
    1.7875   -0.5417    0.0000 C   0  0  0  0  0  0  0  0  0  0  0  0
   -0.9250   -4.8667    0.0000 N   0  0  0  0  0  0  0  0  0  0  0  0
   -1.4583   -2.2917    0.0000 C   0  0  0  0  0  0  0  0  0  0  0  0
    2.5000   -1.5042    0.0000 C   0  0  0  0  0  0  0  0  0  0  0  0
   -1.0375   -4.2792    0.0000 C   0  0  0  0  0  0  0  0  0  0  0  0
   -0.6958   -3.3000    0.0000 C   0  0  0  0  0  0  0  0  0  0  0  0
   -0.5833   -3.8875    0.0000 C   0  0  0  0  0  0  0  0  0  0  0  0
    2.3792   -0.4667    0.0000 C   0  0  0  0  0  0  0  0  0  0  0  0
   -1.8583   -1.3292    0.0000 C   0  0  0  0  0  0  0  0  0  0  0  0
   -1.9333   -1.9250    0.0000 C   0  0  0  0  0  0  0  0  0  0  0  0
    2.7417   -0.9542    0.0000 C   0  0  0  0  0  0  0  0  0  0  0  0
  2  1  2  0
  3  2  1  0
  4  1  1  0
  5  1  1  0
  6  2  1  0
  7  5  1  0
  8  3  2  0
  9  4  2  0
 10  8  1  0
 11  9  1  0
 12  4  1  0
 13  3  1  0
 14 13  2  0
 15 12  2  0
 16  6  2  0
 17  5  2  0
 18 11  1  0
 19 10  1  0
 20 12  1  0
 21 13  1  0
 22 25  1  0
 23 15  1  0
 24 14  1  0
 25 27  1  0
 26 18  1  0
 27 26  1  0
 28 21  2  0
 29 20  2  0
 30 29  1  0
 31 28  1  0
  7  6  1  0
 11 15  1  0
 14 10  1  0
 30 23  2  0
 31 24  2  0
M  END

> <chembl_id>
CHEMBL266483

> <chembl_pref_name>
None

$$$$

     RDKit          2D

 24 27  0  0  0  0  0  0  0  0999 V2000
    2.6024   -2.6977    0.0000 O   0  0  0  0  0  0  0  0  0  0  0  0
    2.6003   -1.4977    0.0000 C   0  0  0  0  0  0  0  0  0  0  0  0
    3.6387   -0.8963    0.0000 O   0  0  0  0  0  0  0  0  0  0  0  0
    1.2990   -0.7500    0.0000 C   0  0  0  0  0  0  0  0  0  0  0  0
    1.2990    0.7500    0.0000 C   0  0  0  0  0  0  0  0  0  0  0  0
    0.0000    1.5000    0.0000 N   0  0  0  0  0  0  0  0  0  0  0  0
    0.0000    3.0008    0.0000 C   0  0  0  0  0  0  0  0  0  0  0  0
    0.7481    4.2096    0.0000 C   0  0  0  0  0  0  0  0  0  0  0  0
   -0.7519    4.2072    0.0000 C   0  0  0  0  0  0  0  0  0  0  0  0
   -1.2990    0.7500    0.0000 C   0  0  0  0  0  0  0  0  0  0  0  0
   -2.5981    1.5000    0.0000 C   0  0  0  0  0  0  0  0  0  0  0  0
   -3.8971    0.7500    0.0000 C   0  0  0  0  0  0  0  0  0  0  0  0
   -5.1968    1.5003    0.0000 N   0  0  0  0  0  0  0  0  0  0  0  0
   -5.1993    3.0004    0.0000 C   0  0  0  0  0  0  0  0  0  0  0  0
   -6.4995    3.7483    0.0000 C   0  0  0  0  0  0  0  0  0  0  0  0
   -7.7974    2.9963    0.0000 N   0  0  0  0  0  0  0  0  0  0  0  0
   -7.7950    1.4963    0.0000 C   0  0  0  0  0  0  0  0  0  0  0  0
   -6.4948    0.7483    0.0000 C   0  0  0  0  0  0  0  0  0  0  0  0
   -3.8971   -0.7500    0.0000 C   0  0  0  0  0  0  0  0  0  0  0  0
   -4.9363   -1.3500    0.0000 F   0  0  0  0  0  0  0  0  0  0  0  0
   -2.5981   -1.5000    0.0000 C   0  0  0  0  0  0  0  0  0  0  0  0
   -1.2990   -0.7500    0.0000 C   0  0  0  0  0  0  0  0  0  0  0  0
    0.0000   -1.5000    0.0000 C   0  0  0  0  0  0  0  0  0  0  0  0
    0.0000   -2.7000    0.0000 O   0  0  0  0  0  0  0  0  0  0  0  0
  1  2  1  0
  2  3  2  0
  2  4  1  0
  4  5  2  0
  5  6  1  0
  6  7  1  0
  7  8  1  0
  8  9  1  0
  9  7  1  0
  6 10  1  0
 10 11  2  0
 11 12  1  0
 12 13  1  0
 13 14  1  0
 14 15  1  0
 15 16  1  0
 16 17  1  0
 17 18  1  0
 18 13  1  0
 12 19  2  0
 19 20  1  0
 19 21  1  0
 21 22  2  0
 22 10  1  0
 22 23  1  0
 23  4  1  0
 23 24  2  0
M  END

> <chembl_id>
CHEMBL8

> <chembl_pref_name>
CIPROFLOXACIN

$$$$

     RDKit          2D

 12 13  0  0  0  0  0  0  0  0999 V2000
    2.9538   -2.0625    0.0000 N   0  0  0  0  0  0  0  0  0  0  0  0
    2.9538   -0.4125    0.0000 C   0  0  0  0  0  0  0  0  0  0  0  0
    2.9538    0.4125    0.0000 C   0  0  0  0  0  0  0  0  0  0  0  0
    2.2393   -0.8250    0.0000 C   0  0  0  0  0  0  0  0  0  0  0  0
    3.6682   -0.8250    0.0000 C   0  0  0  0  0  0  0  0  0  0  0  0
    2.2393    0.8250    0.0000 C   0  0  0  0  0  0  0  0  0  0  0  0
    3.6682    0.8250    0.0000 C   0  0  0  0  0  0  0  0  0  0  0  0
    2.2393   -1.6500    0.0000 C   0  0  0  0  0  0  0  0  0  0  0  0
    3.6682   -1.6500    0.0000 C   0  0  0  0  0  0  0  0  0  0  0  0
    2.2393    1.6500    0.0000 C   0  0  0  0  0  0  0  0  0  0  0  0
    3.6682    1.6500    0.0000 C   0  0  0  0  0  0  0  0  0  0  0  0
    2.9538    2.0625    0.0000 C   0  0  0  0  0  0  0  0  0  0  0  0
  1  8  1  0
  1  9  1  0
  2  3  1  0
  2  4  2  0
  2  5  1  0
  3  6  2  0
  3  7  1  0
  4  8  1  0
  5  9  1  0
  6 10  1  0
  7 11  2  0
 10 12  2  0
 11 12  1  0
M  END

> <chembl_id>
CHEMBL6224

> <chembl_pref_name>
None

$$$$

     RDKit          2D

 29 32  0  0  0  0  0  0  0  0999 V2000
    5.4125   -2.6750    0.0000 C   0  0  0  0  0  0  0  0  0  0  0  0
    4.7042   -3.9167    0.0000 N   0  0  0  0  0  0  0  0  0  0  0  0
    3.9875   -2.6792    0.0000 C   0  0  0  0  0  0  0  0  0  0  0  0
    3.9875   -3.5042    0.0000 C   0  0  0  0  0  0  0  0  0  0  0  0
    4.6917   -2.2667    0.0000 C   0  0  0  0  0  0  0  0  0  0  0  0
    3.2667   -3.9250    0.0000 C   0  0  0  0  0  0  0  0  0  0  0  0
    5.4167   -3.5042    0.0000 C   0  0  0  0  0  0  0  0  0  0  0  0
    2.5542   -3.5125    0.0000 C   0  0  0  0  0  0  0  0  0  0  0  0
    1.8417   -3.9250    0.0000 N   0  0  0  0  0  0  0  0  0  0  0  0
    2.5542   -2.6875    0.0000 C   0  0  0  0  0  0  0  0  0  0  0  0
    3.2667   -2.2667    0.0000 C   0  0  0  0  0  0  0  0  0  0  0  0
    6.1250   -2.2542    0.0000 C   0  0  0  0  0  0  0  0  0  0  0  0
    4.7042   -4.7417    0.0000 C   0  0  0  0  0  0  0  0  0  0  0  0
    1.0917   -3.5917    0.0000 C   0  0  0  0  0  0  0  0  0  0  0  0
    5.4167   -5.1542    0.0000 C   0  0  0  0  0  0  0  0  0  0  0  0
    1.7542   -4.7500    0.0000 C   0  0  0  0  0  0  0  0  0  0  0  0
    5.8375   -5.8667    0.0000 C   0  0  0  0  0  0  0  0  0  0  0  0
    6.2417   -5.1500    0.0000 C   0  0  0  0  0  0  0  0  0  0  0  0
    4.6917   -1.4417    0.0000 O   0  0  0  0  0  0  0  0  0  0  0  0
    6.1167   -1.4292    0.0000 O   0  0  0  0  0  0  0  0  0  0  0  0
    3.2750   -4.7500    0.0000 F   0  0  0  0  0  0  0  0  0  0  0  0
    0.5417   -4.2042    0.0000 C   0  0  0  0  0  0  0  0  0  0  0  0
    1.8417   -2.2750    0.0000 F   0  0  0  0  0  0  0  0  0  0  0  0
    6.8417   -2.6667    0.0000 O   0  0  0  0  0  0  0  0  0  0  0  0
    0.9500   -4.9167    0.0000 C   0  0  0  0  0  0  0  0  0  0  0  0
   -0.7708   -4.7792    0.0000 N   0  0  0  0  0  0  0  0  0  0  0  0
   -0.2833   -4.1167    0.0000 C   0  0  0  0  0  0  0  0  0  0  0  0
   -1.5875   -4.6917    0.0000 C   0  0  0  0  0  0  0  0  0  0  0  0
   -2.0708   -5.3667    0.0000 C   0  0  0  0  0  0  0  0  0  0  0  0
  2  7  1  0
  3  5  1  0
  4  2  1  0
  5  1  1  0
  6  4  2  0
  7  1  2  0
  8  6  1  0
  9  8  1  0
 10 11  1  0
 11  3  2  0
 12  1  1  0
 13  2  1  0
 14  9  1  0
 15 13  1  0
 16  9  1  0
 17 15  1  0
 18 15  1  0
 19  5  2  0
 20 12  2  0
 21  6  1  0
 22 14  1  0
 23 10  1  0
 24 12  1  0
 25 16  1  0
 26 27  1  0
 27 22  1  0
 28 26  1  0
 29 28  1  0
  3  4  1  0
 10  8  2  0
 18 17  1  0
 22 25  1  0
M  END

> <chembl_id>
CHEMBL6225

> <chembl_pref_name>
None

$$$$

     RDKit          2D

 27 29  0  0  0  0  0  0  0  0999 V2000
    5.2875   -2.7042    0.0000 C   0  0  0  0  0  0  0  0  0  0  0  0
    3.8625   -3.5417    0.0000 C   0  0  0  0  0  0  0  0  0  0  0  0
    3.8625   -2.7167    0.0000 C   0  0  0  0  0  0  0  0  0  0  0  0
    4.5792   -3.9542    0.0000 N   0  0  0  0  0  0  0  0  0  0  0  0
    3.1417   -3.9542    0.0000 C   0  0  0  0  0  0  0  0  0  0  0  0
    4.5667   -2.3000    0.0000 C   0  0  0  0  0  0  0  0  0  0  0  0
    5.2917   -3.5375    0.0000 C   0  0  0  0  0  0  0  0  0  0  0  0
    2.4292   -3.5417    0.0000 C   0  0  0  0  0  0  0  0  0  0  0  0
    1.7167   -3.9542    0.0000 N   0  0  0  0  0  0  0  0  0  0  0  0
    2.4292   -2.7167    0.0000 C   0  0  0  0  0  0  0  0  0  0  0  0
    3.1417   -2.3042    0.0000 C   0  0  0  0  0  0  0  0  0  0  0  0
    6.0000   -2.2917    0.0000 C   0  0  0  0  0  0  0  0  0  0  0  0
    0.9667   -3.6250    0.0000 C   0  0  0  0  0  0  0  0  0  0  0  0
    1.6292   -4.7792    0.0000 C   0  0  0  0  0  0  0  0  0  0  0  0
    4.5667   -1.4750    0.0000 O   0  0  0  0  0  0  0  0  0  0  0  0
    4.5792   -4.7792    0.0000 N   0  0  0  0  0  0  0  0  0  0  0  0
    3.1500   -4.7792    0.0000 F   0  0  0  0  0  0  0  0  0  0  0  0
    5.9917   -1.4667    0.0000 O   0  0  0  0  0  0  0  0  0  0  0  0
    0.4167   -4.2375    0.0000 C   0  0  0  0  0  0  0  0  0  0  0  0
    1.7167   -2.3042    0.0000 F   0  0  0  0  0  0  0  0  0  0  0  0
    6.7167   -2.7000    0.0000 O   0  0  0  0  0  0  0  0  0  0  0  0
    0.8250   -4.9542    0.0000 C   0  0  0  0  0  0  0  0  0  0  0  0
   -0.8958   -4.8167    0.0000 N   0  0  0  0  0  0  0  0  0  0  0  0
   -0.4083   -4.1500    0.0000 C   0  0  0  0  0  0  0  0  0  0  0  0
    5.2917   -5.1875    0.0000 C   0  0  0  0  0  0  0  0  0  0  0  0
   -1.7125   -4.7292    0.0000 C   0  0  0  0  0  0  0  0  0  0  0  0
   -2.1958   -5.4000    0.0000 C   0  0  0  0  0  0  0  0  0  0  0  0
  2  4  1  0
  3  6  1  0
  4  7  1  0
  5  2  2  0
  6  1  1  0
  7  1  2  0
  8  5  1  0
  9  8  1  0
 10 11  1  0
 11  3  2  0
 12  1  1  0
 13  9  1  0
 14  9  1  0
 15  6  2  0
 16  4  1  0
 17  5  1  0
 18 12  2  0
 19 13  1  0
 20 10  1  0
 21 12  1  0
 22 14  1  0
 23 24  1  0
 24 19  1  0
 25 16  1  0
 26 23  1  0
 27 26  1  0
  3  2  1  0
 10  8  2  0
 19 22  1  0
M  END

> <chembl_id>
CHEMBL6256

> <chembl_pref_name>
None

$$$$

     RDKit          2D

 14 15  0  0  0  0  0  0  0  0999 V2000
    4.0125   -4.1042    0.0000 N   0  0  0  0  0  0  0  0  0  0  0  0
    4.0125   -2.4542    0.0000 C   0  0  0  0  0  0  0  0  0  0  0  0
    4.7250   -2.8750    0.0000 C   0  0  0  0  0  0  0  0  0  0  0  0
    3.4250   -4.6875    0.0000 O   0  0  0  0  0  0  0  0  0  0  0  0
    4.7250   -3.7000    0.0000 C   0  0  0  0  0  0  0  0  0  0  0  0
    3.3042   -2.8750    0.0000 C   0  0  0  0  0  0  0  0  0  0  0  0
    4.0125   -1.6292    0.0000 C   0  0  0  0  0  0  0  0  0  0  0  0
    3.3042   -3.7000    0.0000 C   0  0  0  0  0  0  0  0  0  0  0  0
    4.5917   -4.6917    0.0000 C   0  0  0  0  0  0  0  0  0  0  0  0
    4.7292   -1.2167    0.0000 C   0  0  0  0  0  0  0  0  0  0  0  0
    3.3042   -1.2167    0.0000 C   0  0  0  0  0  0  0  0  0  0  0  0
    3.3000   -0.4000    0.0000 C   0  0  0  0  0  0  0  0  0  0  0  0
    4.7292   -0.3917    0.0000 C   0  0  0  0  0  0  0  0  0  0  0  0
    4.0167    0.0208    0.0000 C   0  0  0  0  0  0  0  0  0  0  0  0
  2  6  1  0
  3  5  1  0
  4  1  1  0
  5  1  1  0
  6  8  1  0
  7  2  1  0
  8  1  1  0
  9  1  1  0
 10  7  2  0
 11  7  1  0
 12 11  2  0
 13 10  1  0
 14 12  1  0
  2  3  2  0
 14 13  2  0
M  CHG  2   1   1   4  -1
M  END

> <chembl_id>
CHEMBL267230

> <chembl_pref_name>
None

$$$$

     RDKit          2D

 23 25  0  0  0  0  0  0  0  0999 V2000
   11.0152   -3.8625    0.0000 C   0  0  0  0  0  0  0  0  0  0  0  0
   11.0141   -4.6898    0.0000 C   0  0  0  0  0  0  0  0  0  0  0  0
   11.7289   -5.1027    0.0000 C   0  0  0  0  0  0  0  0  0  0  0  0
   11.7271   -3.4497    0.0000 C   0  0  0  0  0  0  0  0  0  0  0  0
   12.4425   -3.8588    0.0000 C   0  0  0  0  0  0  0  0  0  0  0  0
   12.4413   -4.6873    0.0000 C   0  0  0  0  0  0  0  0  0  0  0  0
   13.1543   -5.1003    0.0000 C   0  0  0  0  0  0  0  0  0  0  0  0
   13.8729   -4.6893    0.0000 C   0  0  0  0  0  0  0  0  0  0  0  0
   13.8741   -3.8608    0.0000 C   0  0  0  0  0  0  0  0  0  0  0  0
   13.1566   -3.4433    0.0000 N   0  0  0  0  0  0  0  0  0  0  0  0
   13.1566   -2.6183    0.0000 C   0  0  0  0  0  0  0  0  0  0  0  0
   13.8711   -2.2058    0.0000 C   0  0  0  0  0  0  0  0  0  0  0  0
   13.1519   -5.9253    0.0000 O   0  0  0  0  0  0  0  0  0  0  0  0
   14.5862   -5.1038    0.0000 C   0  0  0  0  0  0  0  0  0  0  0  0
   14.5839   -5.9288    0.0000 O   0  0  0  0  0  0  0  0  0  0  0  0
   15.3019   -4.6933    0.0000 O   0  0  0  0  0  0  0  0  0  0  0  0
   10.2993   -5.1018    0.0000 F   0  0  0  0  0  0  0  0  0  0  0  0
   10.3007   -3.4501    0.0000 N   0  0  0  0  0  0  0  0  0  0  0  0
   10.2986   -2.6243    0.0000 C   0  0  0  0  0  0  0  0  0  0  0  0
    9.5882   -2.2121    0.0000 C   0  0  0  0  0  0  0  0  0  0  0  0
    8.8713   -2.6212    0.0000 N   0  0  0  0  0  0  0  0  0  0  0  0
    8.8696   -3.4472    0.0000 C   0  0  0  0  0  0  0  0  0  0  0  0
    9.5846   -3.8640    0.0000 C   0  0  0  0  0  0  0  0  0  0  0  0
 10 11  1  0
 11 12  1  0
  2  3  1  0
  7 13  2  0
  3  6  2  0
  8 14  1  0
  1  2  2  0
 14 15  1  0
  5  4  2  0
 14 16  2  0
  4  1  1  0
  2 17  1  0
  5 10  1  0
  1 18  1  0
 18 19  1  0
  6  7  1  0
  7  8  1  0
  8  9  2  0
  9 10  1  0
  5  6  1  0
 18 23  1  0
 19 20  1  0
 20 21  1  0
 21 22  1  0
 22 23  1  0
M  END

> <chembl_id>
CHEMBL9

> <chembl_pref_name>
NORFLOXACIN

$$$$

     RDKit          2D

 34 38  0  0  0  0  0  0  0  0999 V2000
    9.4167    1.4583    0.0000 C   0  0  0  0  0  0  0  0  0  0  0  0
   10.0167    1.4500    0.0000 C   0  0  0  0  0  0  0  0  0  0  0  0
   10.3625    0.9625    0.0000 C   0  0  0  0  0  0  0  0  0  0  0  0
    9.1500    0.9208    0.0000 C   0  0  0  0  0  0  0  0  0  0  0  0
    9.2375    2.0250    0.0000 C   0  0  0  0  0  0  0  0  0  0  0  0
   10.2042    2.0208    0.0000 C   0  0  0  0  0  0  0  0  0  0  0  0
    9.7167    2.3750    0.0000 N   0  0  0  0  0  0  0  0  0  0  0  0
   10.3542    0.3583    0.0000 C   0  0  0  0  0  0  0  0  0  0  0  0
    9.4250    0.3833    0.0000 C   0  0  0  0  0  0  0  0  0  0  0  0
   10.9250    0.1708    0.0000 N   0  0  0  0  0  0  0  0  0  0  0  0
    9.0042   -0.0417    0.0000 N   0  0  0  0  0  0  0  0  0  0  0  0
    8.5542    0.8208    0.0000 C   0  0  0  0  0  0  0  0  0  0  0  0
   10.9375    1.1375    0.0000 C   0  0  0  0  0  0  0  0  0  0  0  0
   11.2792    0.6458    0.0000 C   0  0  0  0  0  0  0  0  0  0  0  0
    8.4667    0.2208    0.0000 C   0  0  0  0  0  0  0  0  0  0  0  0
    8.2625   -3.1875    0.0000 C   0  0  0  0  0  0  0  0  0  0  0  0
   10.7792    2.2083    0.0000 O   0  0  0  0  0  0  0  0  0  0  0  0
    8.6667    2.2125    0.0000 O   0  0  0  0  0  0  0  0  0  0  0  0
    7.7417   -3.4792    0.0000 N   0  0  0  0  0  0  0  0  0  0  0  0
    8.2667   -2.5917    0.0000 S   0  0  0  0  0  0  0  0  0  0  0  0
    8.7792   -3.4917    0.0000 N   0  0  0  0  0  0  0  0  0  0  0  0
    9.1000   -0.6375    0.0000 C   0  0  0  0  0  0  0  0  0  0  0  0
   11.1000   -0.4042    0.0000 C   0  0  0  0  0  0  0  0  0  0  0  0
    8.0792    1.1958    0.0000 C   0  0  0  0  0  0  0  0  0  0  0  0
   11.1792    1.6833    0.0000 C   0  0  0  0  0  0  0  0  0  0  0  0
   11.8792    0.7083    0.0000 C   0  0  0  0  0  0  0  0  0  0  0  0
    7.9042    0.0083    0.0000 C   0  0  0  0  0  0  0  0  0  0  0  0
    8.2750   -1.9917    0.0000 C   0  0  0  0  0  0  0  0  0  0  0  0
    8.6375   -1.0167    0.0000 C   0  0  0  0  0  0  0  0  0  0  0  0
    8.7375   -1.6125    0.0000 C   0  0  0  0  0  0  0  0  0  0  0  0
    7.5250    0.9750    0.0000 C   0  0  0  0  0  0  0  0  0  0  0  0
   11.7792    1.7375    0.0000 C   0  0  0  0  0  0  0  0  0  0  0  0
   12.1292    1.2458    0.0000 C   0  0  0  0  0  0  0  0  0  0  0  0
    7.4375    0.3833    0.0000 C   0  0  0  0  0  0  0  0  0  0  0  0
  2  1  2  0
  3  2  1  0
  4  1  1  0
  5  1  1  0
  6  2  1  0
  7  5  1  0
  8  3  2  0
  9  4  2  0
 10  8  1  0
 11  9  1  0
 12  4  1  0
 13  3  1  0
 14 13  2  0
 15 12  2  0
 16 20  1  0
 17  6  2  0
 18  5  2  0
 19 16  2  0
 20 28  1  0
 21 16  1  0
 22 11  1  0
 23 10  1  0
 24 12  1  0
 25 13  1  0
 26 14  1  0
 27 15  1  0
 28 30  1  0
 29 22  1  0
 30 29  1  0
 31 24  2  0
 32 25  2  0
 33 32  1  0
 34 31  1  0
  7  6  1  0
 11 15  1  0
 14 10  1  0
 27 34  2  0
 33 26  2  0
M  END

> <chembl_id>
CHEMBL268888

> <chembl_pref_name>
None

$$$$

     RDKit          2D

 28 30  0  0  0  0  0  0  0  0999 V2000
    5.2875   -2.7042    0.0000 C   0  0  0  0  0  0  0  0  0  0  0  0
    3.8625   -2.7167    0.0000 C   0  0  0  0  0  0  0  0  0  0  0  0
    4.5792   -3.9542    0.0000 N   0  0  0  0  0  0  0  0  0  0  0  0
    3.8625   -3.5417    0.0000 C   0  0  0  0  0  0  0  0  0  0  0  0
    4.5667   -2.3000    0.0000 C   0  0  0  0  0  0  0  0  0  0  0  0
    3.1417   -3.9542    0.0000 C   0  0  0  0  0  0  0  0  0  0  0  0
    5.2917   -3.5375    0.0000 C   0  0  0  0  0  0  0  0  0  0  0  0
    2.4292   -3.5417    0.0000 C   0  0  0  0  0  0  0  0  0  0  0  0
    1.7167   -3.9542    0.0000 N   0  0  0  0  0  0  0  0  0  0  0  0
    2.4292   -2.7167    0.0000 C   0  0  0  0  0  0  0  0  0  0  0  0
    3.1417   -2.3042    0.0000 C   0  0  0  0  0  0  0  0  0  0  0  0
    6.0000   -2.2917    0.0000 C   0  0  0  0  0  0  0  0  0  0  0  0
    0.9667   -3.6250    0.0000 C   0  0  0  0  0  0  0  0  0  0  0  0
    1.6292   -4.7792    0.0000 C   0  0  0  0  0  0  0  0  0  0  0  0
    4.5667   -1.4750    0.0000 O   0  0  0  0  0  0  0  0  0  0  0  0
    5.9917   -1.4667    0.0000 O   0  0  0  0  0  0  0  0  0  0  0  0
    3.1500   -4.7792    0.0000 F   0  0  0  0  0  0  0  0  0  0  0  0
    0.4167   -4.2375    0.0000 C   0  0  0  0  0  0  0  0  0  0  0  0
    1.7167   -2.3042    0.0000 F   0  0  0  0  0  0  0  0  0  0  0  0
    4.5792   -4.7792    0.0000 C   0  0  0  0  0  0  0  0  0  0  0  0
    6.7167   -2.7000    0.0000 O   0  0  0  0  0  0  0  0  0  0  0  0
    0.8250   -4.9542    0.0000 C   0  0  0  0  0  0  0  0  0  0  0  0
   -0.8958   -4.8167    0.0000 N   0  0  0  0  0  0  0  0  0  0  0  0
    3.8667   -6.0167    0.0000 F   0  0  0  0  0  0  0  0  0  0  0  0
   -0.4083   -4.1500    0.0000 C   0  0  0  0  0  0  0  0  0  0  0  0
    3.8667   -5.1917    0.0000 C   0  0  0  0  0  0  0  0  0  0  0  0
   -1.7125   -4.7292    0.0000 C   0  0  0  0  0  0  0  0  0  0  0  0
   -2.1958   -5.4000    0.0000 C   0  0  0  0  0  0  0  0  0  0  0  0
  2  5  1  0
  3  7  1  0
  4  3  1  0
  5  1  1  0
  6  4  2  0
  7  1  2  0
  8  6  1  0
  9  8  1  0
 10 11  1  0
 11  2  2  0
 12  1  1  0
 13  9  1  0
 14  9  1  0
 15  5  2  0
 16 12  2  0
 17  6  1  0
 18 13  1  0
 19 10  1  0
 20  3  1  0
 21 12  1  0
 22 14  1  0
 23 25  1  0
 24 26  1  0
 25 18  1  0
 26 20  1  0
 27 23  1  0
 28 27  1  0
  2  4  1  0
 10  8  2  0
 18 22  1  0
M  END

> <chembl_id>
CHEMBL415287

> <chembl_pref_name>
None

$$$$

     RDKit          2D

 29 33  0  0  0  0  0  0  0  0999 V2000
    3.4847  -11.0450    0.0000 C   0  0  0  0  0  0  0  0  0  0  0  0
    4.2033  -10.6319    0.0000 C   0  0  0  0  0  0  0  0  0  0  0  0
    4.2001   -9.8017    0.0000 C   0  0  0  0  0  0  0  0  0  0  0  0
    3.4828   -9.3932    0.0000 C   0  0  0  0  0  0  0  0  0  0  0  0
    2.7724  -10.6324    0.0000 C   0  0  0  0  0  0  0  0  0  0  0  0
    2.7737   -9.8041    0.0000 C   0  0  0  0  0  0  0  0  0  0  0  0
    1.9864   -9.5468    0.0000 O   0  0  0  0  0  0  0  0  0  0  0  0
    1.4984  -10.2162    0.0000 C   0  0  0  0  0  0  0  0  0  0  0  0
    1.9842  -10.8871    0.0000 O   0  0  0  0  0  0  0  0  0  0  0  0
    4.8283  -12.5597    0.0000 C   0  0  0  0  0  0  0  0  0  0  0  0
    4.0026  -12.6030    0.0000 C   0  0  0  0  0  0  0  0  0  0  0  0
    3.6291  -13.3365    0.0000 C   0  0  0  0  0  0  0  0  0  0  0  0
    4.0804  -14.0318    0.0000 C   0  0  0  0  0  0  0  0  0  0  0  0
    4.9092  -13.9839    0.0000 C   0  0  0  0  0  0  0  0  0  0  0  0
    5.2784  -13.2453    0.0000 N   0  0  0  0  0  0  0  0  0  0  0  0
    5.2003  -11.8249    0.0000 C   0  0  0  0  0  0  0  0  0  0  0  0
    6.0249  -11.7972    0.0000 N   0  0  0  0  0  0  0  0  0  0  0  0
    6.2553  -11.0057    0.0000 C   0  0  0  0  0  0  0  0  0  0  0  0
    5.5734  -10.5422    0.0000 N   0  0  0  0  0  0  0  0  0  0  0  0
    4.9222  -11.0473    0.0000 C   0  0  0  0  0  0  0  0  0  0  0  0
    6.9643  -10.5861    0.0000 C   0  0  0  0  0  0  0  0  0  0  0  0
    7.6818  -10.9933    0.0000 C   0  0  0  0  0  0  0  0  0  0  0  0
    8.3904  -10.5744    0.0000 C   0  0  0  0  0  0  0  0  0  0  0  0
    8.3819   -9.7496    0.0000 C   0  0  0  0  0  0  0  0  0  0  0  0
    7.6590   -9.3456    0.0000 C   0  0  0  0  0  0  0  0  0  0  0  0
    6.9534   -9.7668    0.0000 C   0  0  0  0  0  0  0  0  0  0  0  0
    9.0907   -9.3289    0.0000 C   0  0  0  0  0  0  0  0  0  0  0  0
    9.8094   -9.7323    0.0000 O   0  0  0  0  0  0  0  0  0  0  0  0
    9.0807   -8.5049    0.0000 O   0  0  0  0  0  0  0  0  0  0  0  0
 14 15  2  0
 15 10  1  0
  3  4  2  0
 10 16  1  0
 16 17  1  0
  6  7  1  0
  7  8  1  0
  8  9  1  0
  9  5  1  0
 17 18  1  0
 18 19  2  0
 19 20  1  0
 20 16  2  0
 20  2  1  0
  4  6  1  0
 18 21  1  0
  5  6  2  0
 21 22  2  0
 10 11  2  0
 22 23  1  0
  1  2  2  0
 23 24  2  0
 11 12  1  0
 24 25  1  0
  5  1  1  0
 25 26  2  0
 26 21  1  0
 12 13  2  0
 24 27  1  0
  2  3  1  0
 27 28  1  0
 13 14  1  0
 27 29  2  0
M  END

> <chembl_id>
CHEMBL6250

> <chembl_pref_name>
None

$$$$

     RDKit          2D

 27 30  0  0  0  0  0  0  0  0999 V2000
   10.3778   -8.9759    0.0000 C   0  0  0  0  0  0  0  0  0  0  0  0
    9.7898   -8.6390    0.0000 S   0  0  0  0  0  0  0  0  0  0  0  0
    9.7877   -7.9612    0.0000 O   0  0  0  0  0  0  0  0  0  0  0  0
    9.0572   -9.0655    0.0000 C   0  0  0  0  0  0  0  0  0  0  0  0
    9.0585   -9.9128    0.0000 C   0  0  0  0  0  0  0  0  0  0  0  0
    8.3255  -10.3375    0.0000 C   0  0  0  0  0  0  0  0  0  0  0  0
    7.5911   -9.9151    0.0000 C   0  0  0  0  0  0  0  0  0  0  0  0
    7.5898   -9.0679    0.0000 C   0  0  0  0  0  0  0  0  0  0  0  0
    8.3228   -8.6431    0.0000 C   0  0  0  0  0  0  0  0  0  0  0  0
    6.8577  -10.3401    0.0000 C   0  0  0  0  0  0  0  0  0  0  0  0
    6.7798  -11.1765    0.0000 N   0  0  0  0  0  0  0  0  0  0  0  0
    5.9511  -11.3526    0.0000 C   0  0  0  0  0  0  0  0  0  0  0  0
    5.6063  -12.1270    0.0000 C   0  0  0  0  0  0  0  0  0  0  0  0
    6.0503  -12.8454    0.0000 C   0  0  0  0  0  0  0  0  0  0  0  0
    5.6484  -13.5912    0.0000 C   0  0  0  0  0  0  0  0  0  0  0  0
    4.8016  -13.6161    0.0000 C   0  0  0  0  0  0  0  0  0  0  0  0
    4.4801  -14.2128    0.0000 F   0  0  0  0  0  0  0  0  0  0  0  0
    4.3566  -12.8952    0.0000 C   0  0  0  0  0  0  0  0  0  0  0  0
    4.7584  -12.1493    0.0000 C   0  0  0  0  0  0  0  0  0  0  0  0
    5.5275  -10.6189    0.0000 C   0  0  0  0  0  0  0  0  0  0  0  0
    6.0943   -9.9893    0.0000 N   0  0  0  0  0  0  0  0  0  0  0  0
    4.6845  -10.5304    0.0000 C   0  0  0  0  0  0  0  0  0  0  0  0
    4.1385  -11.1746    0.0000 C   0  0  0  0  0  0  0  0  0  0  0  0
    3.3050  -11.0228    0.0000 C   0  0  0  0  0  0  0  0  0  0  0  0
    3.0196  -10.2251    0.0000 N   0  0  0  0  0  0  0  0  0  0  0  0
    3.5678   -9.5791    0.0000 C   0  0  0  0  0  0  0  0  0  0  0  0
    4.4013   -9.7308    0.0000 C   0  0  0  0  0  0  0  0  0  0  0  0
  1  2  1  0
  2  3  1  0
  2  4  1  0
  4  5  2  0
  5  6  1  0
  6  7  2  0
  7  8  1  0
  8  9  2  0
  9  4  1  0
  7 10  1  0
 10 11  2  0
 11 12  1  0
 12 13  1  0
 13 14  2  0
 14 15  1  0
 15 16  2  0
 16 17  1  0
 16 18  1  0
 18 19  2  0
 19 13  1  0
 12 20  2  0
 20 21  1  0
 21 10  1  0
 20 22  1  0
 22 23  2  0
 23 24  1  0
 24 25  2  0
 25 26  1  0
 26 27  2  0
 27 22  1  0
M  CHG  2   2   1   3  -1
M  END

> <chembl_id>
CHEMBL10

> <chembl_pref_name>
SB-203580

$$$$

     RDKit          2D

 23 27  0  0  0  0  0  0  0  0999 V2000
    2.2393    1.0871    0.0000 C   0  0  0  0  0  0  0  0  0  0  0  0
    2.7242    1.7545    0.0000 C   0  0  0  0  0  0  0  0  0  0  0  0
    3.5088    1.4996    0.0000 C   0  0  0  0  0  0  0  0  0  0  0  0
    4.2935    1.7545    0.0000 N   0  0  0  0  0  0  0  0  0  0  0  0
    4.7784    1.0871    0.0000 C   0  0  0  0  0  0  0  0  0  0  0  0
    4.2935    0.4197    0.0000 C   0  0  0  0  0  0  0  0  0  0  0  0
    4.5484   -0.3650    0.0000 C   0  0  0  0  0  0  0  0  0  0  0  0
    5.3554   -0.5365    0.0000 C   0  0  0  0  0  0  0  0  0  0  0  0
    5.6103   -1.3211    0.0000 C   0  0  0  0  0  0  0  0  0  0  0  0
    5.0583   -1.9342    0.0000 C   0  0  0  0  0  0  0  0  0  0  0  0
    5.1445   -2.7547    0.0000 O   0  0  0  0  0  0  0  0  0  0  0  0
    4.3908   -3.0902    0.0000 C   0  0  0  0  0  0  0  0  0  0  0  0
    3.8388   -2.4771    0.0000 O   0  0  0  0  0  0  0  0  0  0  0  0
    4.2513   -1.7627    0.0000 C   0  0  0  0  0  0  0  0  0  0  0  0
    3.9964   -0.9780    0.0000 C   0  0  0  0  0  0  0  0  0  0  0  0
    3.5088    0.6746    0.0000 N   0  0  0  0  0  0  0  0  0  0  0  0
    2.7242    0.4197    0.0000 C   0  0  0  0  0  0  0  0  0  0  0  0
    5.6034    1.0871    0.0000 C   0  0  0  0  0  0  0  0  0  0  0  0
    6.0159    1.8016    0.0000 C   0  0  0  0  0  0  0  0  0  0  0  0
    6.8409    1.8016    0.0000 C   0  0  0  0  0  0  0  0  0  0  0  0
    7.2534    1.0871    0.0000 C   0  0  0  0  0  0  0  0  0  0  0  0
    6.8409    0.3726    0.0000 C   0  0  0  0  0  0  0  0  0  0  0  0
    6.0159    0.3726    0.0000 N   0  0  0  0  0  0  0  0  0  0  0  0
  1  2  1  0
  2  3  1  0
  3  4  2  0
  4  5  1  0
  5  6  2  0
  6  7  1  0
  7  8  2  0
  8  9  1  0
  9 10  2  0
 10 11  1  0
 11 12  1  0
 12 13  1  0
 13 14  1  0
 10 14  1  0
 14 15  2  0
  7 15  1  0
  6 16  1  0
  3 16  1  0
 16 17  1  0
  1 17  1  0
  5 18  1  0
 18 19  2  0
 19 20  1  0
 20 21  2  0
 21 22  1  0
 22 23  2  0
 18 23  1  0
M  END

> <chembl_id>
CHEMBL268889

> <chembl_pref_name>
None

$$$$

     RDKit          2D

 21 24  0  0  0  0  0  0  0  0999 V2000
   -1.2277  -16.1383    0.0000 C   0  0  0  0  0  0  0  0  0  0  0  0
   -0.5518  -16.6108    0.0000 N   0  0  0  0  0  0  0  0  0  0  0  0
   -0.9856  -15.3514    0.0000 C   0  0  0  0  0  0  0  0  0  0  0  0
   -1.4818  -14.6952    0.0000 C   0  0  0  0  0  0  0  0  0  0  0  0
   -1.1590  -13.9352    0.0000 C   0  0  0  0  0  0  0  0  0  0  0  0
   -1.6553  -13.2777    0.0000 C   0  0  0  0  0  0  0  0  0  0  0  0
   -2.4746  -13.3790    0.0000 C   0  0  0  0  0  0  0  0  0  0  0  0
   -2.7951  -14.1434    0.0000 C   0  0  0  0  0  0  0  0  0  0  0  0
   -2.2966  -14.7976    0.0000 C   0  0  0  0  0  0  0  0  0  0  0  0
   -2.0047  -16.4072    0.0000 C   0  0  0  0  0  0  0  0  0  0  0  0
   -2.6266  -15.8642    0.0000 C   0  0  0  0  0  0  0  0  0  0  0  0
   -3.4058  -16.1317    0.0000 C   0  0  0  0  0  0  0  0  0  0  0  0
   -3.5641  -16.9418    0.0000 C   0  0  0  0  0  0  0  0  0  0  0  0
   -2.9371  -17.4839    0.0000 C   0  0  0  0  0  0  0  0  0  0  0  0
   -2.1604  -17.2135    0.0000 N   0  0  0  0  0  0  0  0  0  0  0  0
   -2.9726  -12.7217    0.0000 F   0  0  0  0  0  0  0  0  0  0  0  0
   -0.1620  -15.3335    0.0000 N   0  0  0  0  0  0  0  0  0  0  0  0
    0.1108  -16.1151    0.0000 C   0  0  0  0  0  0  0  0  0  0  0  0
    0.9385  -16.0971    0.0000 S   0  0  0  0  0  0  0  0  0  0  0  0
    1.1772  -15.3043    0.0000 C   0  0  0  0  0  0  0  0  0  0  0  0
    0.4970  -14.8324    0.0000 C   0  0  0  0  0  0  0  0  0  0  0  0
  4  5  2  0
 10 11  2  0
  2 18  2  0
 11 12  1  0
  5  6  1  0
 12 13  2  0
 17  3  1  0
 13 14  1  0
  6  7  2  0
 14 15  2  0
 15 10  1  0
  1 10  1  0
  3  1  2  0
  7 16  1  0
 17 18  1  0
  7  8  1  0
  1  2  1  0
  8  9  2  0
  9  4  1  0
  3  4  1  0
 18 19  1  0
 19 20  1  0
 20 21  1  0
 21 17  1  0
M  END

> <chembl_id>
CHEMBL266706

> <chembl_pref_name>
None

$$$$

     RDKit          2D

 21 24  0  0  0  0  0  0  0  0999 V2000
    0.8750   -2.0250    0.0000 C   0  0  0  0  0  0  0  0  0  0  0  0
    1.3542   -2.6917    0.0000 N   0  0  0  0  0  0  0  0  0  0  0  0
    1.3667   -1.3542    0.0000 C   0  0  0  0  0  0  0  0  0  0  0  0
    2.1500   -1.6167    0.0000 N   0  0  0  0  0  0  0  0  0  0  0  0
    2.1500   -2.4417    0.0000 C   0  0  0  0  0  0  0  0  0  0  0  0
    0.0500   -2.0167    0.0000 C   0  0  0  0  0  0  0  0  0  0  0  0
    0.9500   -0.6417    0.0000 C   0  0  0  0  0  0  0  0  0  0  0  0
   -0.3708   -2.7292    0.0000 N   0  0  0  0  0  0  0  0  0  0  0  0
    0.1167   -0.6417    0.0000 C   0  0  0  0  0  0  0  0  0  0  0  0
    1.3667    0.0833    0.0000 C   0  0  0  0  0  0  0  0  0  0  0  0
    2.9292   -1.3625    0.0000 C   0  0  0  0  0  0  0  0  0  0  0  0
    2.9292   -2.7000    0.0000 C   0  0  0  0  0  0  0  0  0  0  0  0
    0.1167    0.8000    0.0000 C   0  0  0  0  0  0  0  0  0  0  0  0
    0.9500    0.8000    0.0000 C   0  0  0  0  0  0  0  0  0  0  0  0
   -0.3000    0.0750    0.0000 C   0  0  0  0  0  0  0  0  0  0  0  0
   -0.3000    1.5208    0.0000 F   0  0  0  0  0  0  0  0  0  0  0  0
    3.4167   -2.0292    0.0000 C   0  0  0  0  0  0  0  0  0  0  0  0
   -1.1958   -2.7292    0.0000 C   0  0  0  0  0  0  0  0  0  0  0  0
   -0.3583   -1.2917    0.0000 C   0  0  0  0  0  0  0  0  0  0  0  0
   -1.6083   -2.0042    0.0000 C   0  0  0  0  0  0  0  0  0  0  0  0
   -1.1875   -1.2917    0.0000 C   0  0  0  0  0  0  0  0  0  0  0  0
  2  1  1  0
  3  1  2  0
  4  3  1  0
  5  2  2  0
  6  1  1  0
  7  3  1  0
  8  6  1  0
  9  7  1  0
 10  7  2  0
 11  4  1  0
 12  5  1  0
 13 14  2  0
 14 10  1  0
 15  9  2  0
 16 13  1  0
 17 11  1  0
 18  8  2  0
 19  6  2  0
 20 21  2  0
 21 19  1  0
  4  5  1  0
 18 20  1  0
 15 13  1  0
 12 17  1  0
M  END

> <chembl_id>
CHEMBL6304

> <chembl_pref_name>
None

$$$$

     RDKit          2D

 21 24  0  0  0  0  0  0  0  0999 V2000
    0.2498   -4.0609    0.0000 F   0  0  0  0  0  0  0  0  0  0  0  0
    0.5047   -3.2762    0.0000 C   0  0  0  0  0  0  0  0  0  0  0  0
   -0.0473   -2.6631    0.0000 C   0  0  0  0  0  0  0  0  0  0  0  0
    0.2076   -1.8785    0.0000 C   0  0  0  0  0  0  0  0  0  0  0  0
    1.0146   -1.7070    0.0000 C   0  0  0  0  0  0  0  0  0  0  0  0
    1.5666   -2.3201    0.0000 C   0  0  0  0  0  0  0  0  0  0  0  0
    1.3117   -3.1047    0.0000 C   0  0  0  0  0  0  0  0  0  0  0  0
    1.2695   -0.9224    0.0000 C   0  0  0  0  0  0  0  0  0  0  0  0
    0.7846   -0.2549    0.0000 C   0  0  0  0  0  0  0  0  0  0  0  0
    1.2695    0.4125    0.0000 N   0  0  0  0  0  0  0  0  0  0  0  0
    2.0542    0.1576    0.0000 C   0  0  0  0  0  0  0  0  0  0  0  0
    2.8388    0.4125    0.0000 S   0  0  0  0  0  0  0  0  0  0  0  0
    3.3237   -0.2549    0.0000 C   0  0  0  0  0  0  0  0  0  0  0  0
    2.8388   -0.9224    0.0000 C   0  0  0  0  0  0  0  0  0  0  0  0
    2.0542   -0.6674    0.0000 N   0  0  0  0  0  0  0  0  0  0  0  0
   -0.0404   -0.2549    0.0000 C   0  0  0  0  0  0  0  0  0  0  0  0
   -0.4529   -0.9694    0.0000 C   0  0  0  0  0  0  0  0  0  0  0  0
   -1.2779   -0.9694    0.0000 C   0  0  0  0  0  0  0  0  0  0  0  0
   -1.6904   -0.2549    0.0000 N   0  0  0  0  0  0  0  0  0  0  0  0
   -1.2779    0.4595    0.0000 C   0  0  0  0  0  0  0  0  0  0  0  0
   -0.4529    0.4595    0.0000 C   0  0  0  0  0  0  0  0  0  0  0  0
  1  2  1  0
  2  3  2  0
  3  4  1  0
  4  5  2  0
  5  6  1  0
  6  7  2  0
  2  7  1  0
  5  8  1  0
  8  9  2  0
  9 10  1  0
 10 11  2  0
 11 12  1  0
 12 13  1  0
 13 14  1  0
 14 15  1  0
  8 15  1  0
 11 15  1  0
  9 16  1  0
 16 17  2  0
 17 18  1  0
 18 19  2  0
 19 20  1  0
 20 21  2  0
 16 21  1  0
M  END

> <chembl_id>
CHEMBL266707

> <chembl_pref_name>
None

$$$$

     RDKit          2D

 21 24  0  0  0  0  0  0  0  0999 V2000
    0.8750   -2.0250    0.0000 C   0  0  0  0  0  0  0  0  0  0  0  0
    1.3542   -2.6917    0.0000 N   0  0  0  0  0  0  0  0  0  0  0  0
    1.3667   -1.3542    0.0000 C   0  0  0  0  0  0  0  0  0  0  0  0
    2.1500   -1.6167    0.0000 N   0  0  0  0  0  0  0  0  0  0  0  0
    2.1500   -2.4417    0.0000 C   0  0  0  0  0  0  0  0  0  0  0  0
    0.0500   -2.0167    0.0000 C   0  0  0  0  0  0  0  0  0  0  0  0
    0.9500   -0.6417    0.0000 C   0  0  0  0  0  0  0  0  0  0  0  0
   -1.1958   -2.7292    0.0000 N   0  0  0  0  0  0  0  0  0  0  0  0
    0.1167   -0.6417    0.0000 C   0  0  0  0  0  0  0  0  0  0  0  0
    1.3667    0.0833    0.0000 C   0  0  0  0  0  0  0  0  0  0  0  0
    2.9292   -1.3625    0.0000 C   0  0  0  0  0  0  0  0  0  0  0  0
    2.9292   -2.7000    0.0000 C   0  0  0  0  0  0  0  0  0  0  0  0
    0.1167    0.8000    0.0000 C   0  0  0  0  0  0  0  0  0  0  0  0
    0.9500    0.8000    0.0000 C   0  0  0  0  0  0  0  0  0  0  0  0
   -0.3000    0.0750    0.0000 C   0  0  0  0  0  0  0  0  0  0  0  0
   -0.3708   -2.7292    0.0000 C   0  0  0  0  0  0  0  0  0  0  0  0
   -0.3000    1.5208    0.0000 F   0  0  0  0  0  0  0  0  0  0  0  0
    3.4167   -2.0292    0.0000 C   0  0  0  0  0  0  0  0  0  0  0  0
   -0.3583   -1.2917    0.0000 C   0  0  0  0  0  0  0  0  0  0  0  0
   -1.6083   -2.0042    0.0000 C   0  0  0  0  0  0  0  0  0  0  0  0
   -1.1875   -1.2917    0.0000 C   0  0  0  0  0  0  0  0  0  0  0  0
  2  1  1  0
  3  1  2  0
  4  3  1  0
  5  2  2  0
  6  1  1  0
  7  3  1  0
  8 16  2  0
  9  7  1  0
 10  7  2  0
 11  4  1  0
 12  5  1  0
 13 14  2  0
 14 10  1  0
 15  9  2  0
 16  6  1  0
 17 13  1  0
 18 11  1  0
 19  6  2  0
 20 21  2  0
 21 19  1  0
  4  5  1  0
  8 20  1  0
 15 13  1  0
 12 18  1  0
M  END

> <chembl_id>
CHEMBL6294

> <chembl_pref_name>
None

$$$$

     RDKit          2D

 30 33  0  0  0  0  0  0  0  0999 V2000
    4.7042   -3.9167    0.0000 N   0  0  0  0  0  0  0  0  0  0  0  0
    5.4125   -2.6750    0.0000 C   0  0  0  0  0  0  0  0  0  0  0  0
    3.9875   -3.5042    0.0000 C   0  0  0  0  0  0  0  0  0  0  0  0
    3.9875   -2.6792    0.0000 C   0  0  0  0  0  0  0  0  0  0  0  0
    5.4167   -3.5042    0.0000 C   0  0  0  0  0  0  0  0  0  0  0  0
    3.2667   -3.9250    0.0000 C   0  0  0  0  0  0  0  0  0  0  0  0
    4.6917   -2.2667    0.0000 C   0  0  0  0  0  0  0  0  0  0  0  0
    2.5542   -3.5125    0.0000 C   0  0  0  0  0  0  0  0  0  0  0  0
    1.8417   -3.9250    0.0000 N   0  0  0  0  0  0  0  0  0  0  0  0
    4.7042   -4.7417    0.0000 C   0  0  0  0  0  0  0  0  0  0  0  0
    2.5542   -2.6875    0.0000 C   0  0  0  0  0  0  0  0  0  0  0  0
    3.2667   -2.2667    0.0000 C   0  0  0  0  0  0  0  0  0  0  0  0
    6.1250   -2.2542    0.0000 C   0  0  0  0  0  0  0  0  0  0  0  0
    4.0292   -5.2292    0.0000 N   0  0  0  0  0  0  0  0  0  0  0  0
    5.3667   -5.2250    0.0000 S   0  0  0  0  0  0  0  0  0  0  0  0
    1.0917   -3.5917    0.0000 C   0  0  0  0  0  0  0  0  0  0  0  0
    1.7542   -4.7500    0.0000 C   0  0  0  0  0  0  0  0  0  0  0  0
    4.6917   -1.4417    0.0000 O   0  0  0  0  0  0  0  0  0  0  0  0
    4.2917   -6.0125    0.0000 C   0  0  0  0  0  0  0  0  0  0  0  0
    5.1167   -6.0125    0.0000 C   0  0  0  0  0  0  0  0  0  0  0  0
    3.2750   -4.7500    0.0000 F   0  0  0  0  0  0  0  0  0  0  0  0
    6.1167   -1.4292    0.0000 O   0  0  0  0  0  0  0  0  0  0  0  0
    0.5417   -4.2042    0.0000 C   0  0  0  0  0  0  0  0  0  0  0  0
    1.8417   -2.2750    0.0000 F   0  0  0  0  0  0  0  0  0  0  0  0
    6.8417   -2.6667    0.0000 O   0  0  0  0  0  0  0  0  0  0  0  0
    0.9500   -4.9167    0.0000 C   0  0  0  0  0  0  0  0  0  0  0  0
   -0.7708   -4.7792    0.0000 N   0  0  0  0  0  0  0  0  0  0  0  0
   -0.2833   -4.1167    0.0000 C   0  0  0  0  0  0  0  0  0  0  0  0
   -1.5875   -4.6917    0.0000 C   0  0  0  0  0  0  0  0  0  0  0  0
   -2.0708   -5.3667    0.0000 C   0  0  0  0  0  0  0  0  0  0  0  0
  2  5  2  0
  3  1  1  0
  4  3  1  0
  5  1  1  0
  6  3  2  0
  7  2  1  0
  8  6  1  0
  9  8  1  0
 10  1  1  0
 11  8  2  0
 12  4  2  0
 13  2  1  0
 14 10  2  0
 15 10  1  0
 16  9  1  0
 17  9  1  0
 18  7  2  0
 19 14  1  0
 20 15  1  0
 21  6  1  0
 22 13  2  0
 23 16  1  0
 24 11  1  0
 25 13  1  0
 26 17  1  0
 27 28  1  0
 28 23  1  0
 29 27  1  0
 30 29  1  0
 19 20  2  0
  4  7  1  0
 12 11  1  0
 23 26  1  0
M  END

> <chembl_id>
CHEMBL6299

> <chembl_pref_name>
None

$$$$

     RDKit          2D

 31 34  0  0  0  0  0  0  0  0999 V2000
    5.4125   -2.6750    0.0000 C   0  0  0  0  0  0  0  0  0  0  0  0
    4.7042   -3.9167    0.0000 N   0  0  0  0  0  0  0  0  0  0  0  0
    3.9875   -3.5042    0.0000 C   0  0  0  0  0  0  0  0  0  0  0  0
    3.9875   -2.6792    0.0000 C   0  0  0  0  0  0  0  0  0  0  0  0
    3.2667   -3.9250    0.0000 C   0  0  0  0  0  0  0  0  0  0  0  0
    5.4167   -3.5042    0.0000 C   0  0  0  0  0  0  0  0  0  0  0  0
    4.6917   -2.2667    0.0000 C   0  0  0  0  0  0  0  0  0  0  0  0
    2.5542   -3.5125    0.0000 C   0  0  0  0  0  0  0  0  0  0  0  0
    1.8417   -3.9250    0.0000 N   0  0  0  0  0  0  0  0  0  0  0  0
    2.5542   -2.6875    0.0000 C   0  0  0  0  0  0  0  0  0  0  0  0
    3.2667   -2.2667    0.0000 C   0  0  0  0  0  0  0  0  0  0  0  0
    6.1250   -2.2542    0.0000 C   0  0  0  0  0  0  0  0  0  0  0  0
    1.0917   -3.5917    0.0000 C   0  0  0  0  0  0  0  0  0  0  0  0
    4.7042   -4.7417    0.0000 C   0  0  0  0  0  0  0  0  0  0  0  0
    1.7542   -4.7500    0.0000 C   0  0  0  0  0  0  0  0  0  0  0  0
    4.6917   -1.4417    0.0000 O   0  0  0  0  0  0  0  0  0  0  0  0
    3.2750   -4.7500    0.0000 F   0  0  0  0  0  0  0  0  0  0  0  0
    6.1167   -1.4292    0.0000 O   0  0  0  0  0  0  0  0  0  0  0  0
    0.5417   -4.2042    0.0000 C   0  0  0  0  0  0  0  0  0  0  0  0
    1.8417   -2.2750    0.0000 F   0  0  0  0  0  0  0  0  0  0  0  0
    6.8417   -2.6667    0.0000 O   0  0  0  0  0  0  0  0  0  0  0  0
    0.9500   -4.9167    0.0000 C   0  0  0  0  0  0  0  0  0  0  0  0
   -0.7708   -4.7792    0.0000 N   0  0  0  0  0  0  0  0  0  0  0  0
   -0.2833   -4.1167    0.0000 C   0  0  0  0  0  0  0  0  0  0  0  0
    3.9875   -5.1542    0.0000 C   0  0  0  0  0  0  0  0  0  0  0  0
    5.4167   -5.1500    0.0000 C   0  0  0  0  0  0  0  0  0  0  0  0
   -1.5875   -4.6917    0.0000 C   0  0  0  0  0  0  0  0  0  0  0  0
   -2.0708   -5.3667    0.0000 C   0  0  0  0  0  0  0  0  0  0  0  0
    5.4167   -5.9667    0.0000 C   0  0  0  0  0  0  0  0  0  0  0  0
    3.9875   -5.9792    0.0000 C   0  0  0  0  0  0  0  0  0  0  0  0
    4.7042   -6.3917    0.0000 C   0  0  0  0  0  0  0  0  0  0  0  0
  2  6  1  0
  3  4  1  0
  4  7  1  0
  5  3  2  0
  6  1  2  0
  7  1  1  0
  8 10  2  0
  9  8  1  0
 10 11  1  0
 11  4  2  0
 12  1  1  0
 13  9  1  0
 14  2  1  0
 15  9  1  0
 16  7  2  0
 17  5  1  0
 18 12  2  0
 19 13  1  0
 20 10  1  0
 21 12  1  0
 22 15  1  0
 23 24  1  0
 24 19  1  0
 25 14  2  0
 26 14  1  0
 27 23  1  0
 28 27  1  0
 29 26  2  0
 30 25  1  0
 31 29  1  0
  3  2  1  0
  5  8  1  0
 30 31  2  0
 19 22  1  0
M  END

> <chembl_id>
CHEMBL263075

> <chembl_pref_name>
None

$$$$

     RDKit          2D

 29 32  0  0  0  0  0  0  0  0999 V2000
    5.4125   -2.6750    0.0000 C   0  0  0  0  0  0  0  0  0  0  0  0
    4.7042   -3.9167    0.0000 N   0  0  0  0  0  0  0  0  0  0  0  0
    3.9875   -3.5042    0.0000 C   0  0  0  0  0  0  0  0  0  0  0  0
    3.9875   -2.6792    0.0000 C   0  0  0  0  0  0  0  0  0  0  0  0
    3.2667   -3.9250    0.0000 C   0  0  0  0  0  0  0  0  0  0  0  0
    5.4167   -3.5042    0.0000 C   0  0  0  0  0  0  0  0  0  0  0  0
    4.6917   -2.2667    0.0000 C   0  0  0  0  0  0  0  0  0  0  0  0
    2.5542   -3.5125    0.0000 C   0  0  0  0  0  0  0  0  0  0  0  0
    1.8417   -3.9250    0.0000 N   0  0  0  0  0  0  0  0  0  0  0  0
    2.5542   -2.6875    0.0000 C   0  0  0  0  0  0  0  0  0  0  0  0
    3.2667   -2.2667    0.0000 C   0  0  0  0  0  0  0  0  0  0  0  0
    6.1250   -2.2542    0.0000 C   0  0  0  0  0  0  0  0  0  0  0  0
    1.0917   -3.5917    0.0000 C   0  0  0  0  0  0  0  0  0  0  0  0
    4.7042   -4.7417    0.0000 C   0  0  0  0  0  0  0  0  0  0  0  0
    1.7542   -4.7500    0.0000 C   0  0  0  0  0  0  0  0  0  0  0  0
    4.6917   -1.4417    0.0000 O   0  0  0  0  0  0  0  0  0  0  0  0
    3.2750   -4.7500    0.0000 F   0  0  0  0  0  0  0  0  0  0  0  0
    6.1167   -1.4292    0.0000 O   0  0  0  0  0  0  0  0  0  0  0  0
    0.5417   -4.2042    0.0000 C   0  0  0  0  0  0  0  0  0  0  0  0
    1.8417   -2.2750    0.0000 F   0  0  0  0  0  0  0  0  0  0  0  0
    6.8417   -2.6667    0.0000 O   0  0  0  0  0  0  0  0  0  0  0  0
    0.9500   -4.9167    0.0000 C   0  0  0  0  0  0  0  0  0  0  0  0
   -0.7708   -4.7792    0.0000 N   0  0  0  0  0  0  0  0  0  0  0  0
   -0.2833   -4.1167    0.0000 C   0  0  0  0  0  0  0  0  0  0  0  0
    4.7042   -5.9042    0.0000 C   0  0  0  0  0  0  0  0  0  0  0  0
    4.1167   -5.3250    0.0000 C   0  0  0  0  0  0  0  0  0  0  0  0
    5.2875   -5.3250    0.0000 C   0  0  0  0  0  0  0  0  0  0  0  0
   -1.5875   -4.6917    0.0000 C   0  0  0  0  0  0  0  0  0  0  0  0
   -2.0708   -5.3667    0.0000 C   0  0  0  0  0  0  0  0  0  0  0  0
  2  6  1  0
  3  4  1  0
  4  7  1  0
  5  3  2  0
  6  1  2  0
  7  1  1  0
  8 10  2  0
  9  8  1  0
 10 11  1  0
 11  4  2  0
 12  1  1  0
 13  9  1  0
 14  2  1  0
 15  9  1  0
 16  7  2  0
 17  5  1  0
 18 12  2  0
 19 13  1  0
 20 10  1  0
 21 12  1  0
 22 15  1  0
 23 24  1  0
 24 19  1  0
 25 27  1  0
 26 14  1  0
 27 14  1  0
 28 23  1  0
 29 28  1  0
  3  2  1  0
 26 25  1  0
  5  8  1  0
 19 22  1  0
M  END

> <chembl_id>
CHEMBL6262

> <chembl_pref_name>
None

$$$$

     RDKit          2D

 29 32  0  0  0  0  0  0  0  0999 V2000
    4.5792   -3.9542    0.0000 N   0  0  0  0  0  0  0  0  0  0  0  0
    5.2875   -2.7042    0.0000 C   0  0  0  0  0  0  0  0  0  0  0  0
    3.8625   -3.5417    0.0000 C   0  0  0  0  0  0  0  0  0  0  0  0
    3.8625   -2.7167    0.0000 C   0  0  0  0  0  0  0  0  0  0  0  0
    5.2917   -3.5375    0.0000 C   0  0  0  0  0  0  0  0  0  0  0  0
    3.1417   -3.9542    0.0000 C   0  0  0  0  0  0  0  0  0  0  0  0
    4.5667   -2.3000    0.0000 C   0  0  0  0  0  0  0  0  0  0  0  0
    2.4292   -3.5417    0.0000 C   0  0  0  0  0  0  0  0  0  0  0  0
    1.7167   -3.9542    0.0000 N   0  0  0  0  0  0  0  0  0  0  0  0
    4.5792   -4.7792    0.0000 C   0  0  0  0  0  0  0  0  0  0  0  0
    2.4292   -2.7167    0.0000 C   0  0  0  0  0  0  0  0  0  0  0  0
    3.1417   -2.3042    0.0000 C   0  0  0  0  0  0  0  0  0  0  0  0
    6.0000   -2.2917    0.0000 C   0  0  0  0  0  0  0  0  0  0  0  0
    4.1667   -5.4917    0.0000 C   0  0  0  0  0  0  0  0  0  0  0  0
    4.9917   -5.4917    0.0000 C   0  0  0  0  0  0  0  0  0  0  0  0
    0.9667   -3.6250    0.0000 C   0  0  0  0  0  0  0  0  0  0  0  0
    1.6292   -4.7792    0.0000 C   0  0  0  0  0  0  0  0  0  0  0  0
    4.5667   -1.4750    0.0000 O   0  0  0  0  0  0  0  0  0  0  0  0
    3.1500   -4.7792    0.0000 F   0  0  0  0  0  0  0  0  0  0  0  0
    5.9917   -1.4667    0.0000 O   0  0  0  0  0  0  0  0  0  0  0  0
    0.4167   -4.2375    0.0000 C   0  0  0  0  0  0  0  0  0  0  0  0
    1.7167   -2.3042    0.0000 F   0  0  0  0  0  0  0  0  0  0  0  0
    6.7167   -2.7000    0.0000 O   0  0  0  0  0  0  0  0  0  0  0  0
    0.8250   -4.9542    0.0000 C   0  0  0  0  0  0  0  0  0  0  0  0
   -0.8958   -4.8167    0.0000 N   0  0  0  0  0  0  0  0  0  0  0  0
    5.3750   -4.5625    0.0000 C   0  0  0  0  0  0  0  0  0  0  0  0
   -0.4083   -4.1500    0.0000 C   0  0  0  0  0  0  0  0  0  0  0  0
   -1.7125   -4.7292    0.0000 C   0  0  0  0  0  0  0  0  0  0  0  0
   -2.1958   -5.4000    0.0000 C   0  0  0  0  0  0  0  0  0  0  0  0
  2  5  2  0
  3  1  1  0
  4  3  1  0
  5  1  1  0
  6  3  2  0
  7  2  1  0
  8  6  1  0
  9  8  1  0
 10  1  1  0
 11  8  2  0
 12  4  2  0
 13  2  1  0
 14 10  1  0
 15 10  1  0
 16  9  1  0
 17  9  1  0
 18  7  2  0
 19  6  1  0
 20 13  2  0
 21 16  1  0
 22 11  1  0
 23 13  1  0
 24 17  1  0
 25 27  1  0
 26 10  1  0
 27 21  1  0
 28 25  1  0
 29 28  1  0
 15 14  1  0
  4  7  1  0
 12 11  1  0
 21 24  1  0
M  END

> <chembl_id>
CHEMBL6276

> <chembl_pref_name>
None

$$$$

     RDKit          2D

 36 40  0  0  0  0  0  0  0  0999 V2000
    9.4167    2.0083    0.0000 C   0  0  0  0  0  0  0  0  0  0  0  0
   10.0167    2.0000    0.0000 C   0  0  0  0  0  0  0  0  0  0  0  0
   10.3625    1.5125    0.0000 C   0  0  0  0  0  0  0  0  0  0  0  0
    9.1500    1.4708    0.0000 C   0  0  0  0  0  0  0  0  0  0  0  0
    9.2375    2.5833    0.0000 C   0  0  0  0  0  0  0  0  0  0  0  0
   10.2042    2.5708    0.0000 C   0  0  0  0  0  0  0  0  0  0  0  0
    9.7167    2.9250    0.0000 N   0  0  0  0  0  0  0  0  0  0  0  0
    7.1417   -2.3292    0.0000 N   0  0  0  0  0  0  0  0  0  0  0  0
   10.3542    0.9083    0.0000 C   0  0  0  0  0  0  0  0  0  0  0  0
    9.4250    0.9333    0.0000 C   0  0  0  0  0  0  0  0  0  0  0  0
    9.0042    0.5083    0.0000 N   0  0  0  0  0  0  0  0  0  0  0  0
   10.9250    0.7208    0.0000 N   0  0  0  0  0  0  0  0  0  0  0  0
    7.7417   -2.3375    0.0000 N   0  0  0  0  0  0  0  0  0  0  0  0
   10.9375    1.6875    0.0000 C   0  0  0  0  0  0  0  0  0  0  0  0
    8.5542    1.3708    0.0000 C   0  0  0  0  0  0  0  0  0  0  0  0
   11.2792    1.1958    0.0000 C   0  0  0  0  0  0  0  0  0  0  0  0
    8.4667    0.7708    0.0000 C   0  0  0  0  0  0  0  0  0  0  0  0
    8.2667   -2.0417    0.0000 C   0  0  0  0  0  0  0  0  0  0  0  0
    6.8417   -1.8042    0.0000 O   0  0  0  0  0  0  0  0  0  0  0  0
   10.7792    2.7500    0.0000 O   0  0  0  0  0  0  0  0  0  0  0  0
    8.6667    2.7708    0.0000 O   0  0  0  0  0  0  0  0  0  0  0  0
    6.8375   -2.8500    0.0000 O   0  0  0  0  0  0  0  0  0  0  0  0
    8.2750   -1.4417    0.0000 N   0  0  0  0  0  0  0  0  0  0  0  0
    8.7792   -2.3417    0.0000 N   0  0  0  0  0  0  0  0  0  0  0  0
    9.1000   -0.0875    0.0000 C   0  0  0  0  0  0  0  0  0  0  0  0
   11.1000    0.1458    0.0000 C   0  0  0  0  0  0  0  0  0  0  0  0
   11.1792    2.2333    0.0000 C   0  0  0  0  0  0  0  0  0  0  0  0
    8.0792    1.7458    0.0000 C   0  0  0  0  0  0  0  0  0  0  0  0
    8.6375   -0.4667    0.0000 C   0  0  0  0  0  0  0  0  0  0  0  0
   11.8792    1.2583    0.0000 C   0  0  0  0  0  0  0  0  0  0  0  0
    7.9042    0.5583    0.0000 C   0  0  0  0  0  0  0  0  0  0  0  0
    8.7375   -1.0625    0.0000 C   0  0  0  0  0  0  0  0  0  0  0  0
    7.5250    1.5250    0.0000 C   0  0  0  0  0  0  0  0  0  0  0  0
   11.7792    2.2875    0.0000 C   0  0  0  0  0  0  0  0  0  0  0  0
   12.1292    1.7958    0.0000 C   0  0  0  0  0  0  0  0  0  0  0  0
    7.4375    0.9333    0.0000 C   0  0  0  0  0  0  0  0  0  0  0  0
  2  1  2  0
  3  2  1  0
  4  1  1  0
  5  1  1  0
  6  2  1  0
  7  5  1  0
  8 13  1  0
  9  3  2  0
 10  4  2  0
 11 10  1  0
 12  9  1  0
 13 18  1  0
 14  3  1  0
 15  4  1  0
 16 14  2  0
 17 15  2  0
 18 23  2  0
 19  8  1  0
 20  6  2  0
 21  5  2  0
 22  8  2  0
 23 32  1  0
 24 18  1  0
 25 11  1  0
 26 12  1  0
 27 14  1  0
 28 15  1  0
 29 25  1  0
 30 16  1  0
 31 17  1  0
 32 29  1  0
 33 28  2  0
 34 27  2  0
 35 34  1  0
 36 33  1  0
  6  7  1  0
 17 11  1  0
 12 16  1  0
 31 36  2  0
 30 35  2  0
M  CHG  2   8   1  19  -1
M  END

> <chembl_id>
CHEMBL6279

> <chembl_pref_name>
None

$$$$

     RDKit          2D

 12 13  0  0  0  0  0  0  0  0999 V2000
    4.0167   -2.8417    0.0000 C   0  0  0  0  0  0  0  0  0  0  0  0
    4.0250   -3.6667    0.0000 C   0  0  0  0  0  0  0  0  0  0  0  0
    4.8125   -3.9167    0.0000 S   0  0  0  0  0  0  0  0  0  0  0  0
    4.8042   -2.5792    0.0000 C   0  0  0  0  0  0  0  0  0  0  0  0
    3.3042   -2.4292    0.0000 C   0  0  0  0  0  0  0  0  0  0  0  0
    3.3042   -4.0792    0.0000 N   0  0  0  0  0  0  0  0  0  0  0  0
    5.2917   -3.2417    0.0000 C   0  0  0  0  0  0  0  0  0  0  0  0
    2.5917   -2.8417    0.0000 N   0  0  0  0  0  0  0  0  0  0  0  0
    2.5917   -3.6667    0.0000 C   0  0  0  0  0  0  0  0  0  0  0  0
    3.3000   -1.6042    0.0000 Cl  0  0  0  0  0  0  0  0  0  0  0  0
    6.1167   -3.2417    0.0000 C   0  0  0  0  0  0  0  0  0  0  0  0
    6.5292   -2.5250    0.0000 C   0  0  0  0  0  0  0  0  0  0  0  0
  2  1  1  0
  3  2  1  0
  4  1  1  0
  5  1  2  0
  6  2  2  0
  7  4  2  0
  8  5  1  0
  9  8  2  0
 10  5  1  0
 11  7  1  0
 12 11  1  0
  3  7  1  0
  6  9  1  0
M  END

> <chembl_id>
CHEMBL269056

> <chembl_pref_name>
None

$$$$

     RDKit          2D

 18 20  0  0  0  0  0  0  0  0999 V2000
    2.4250   -5.5542    0.0000 C   0  0  0  0  0  0  0  0  0  0  0  0
    0.9917   -3.9125    0.0000 C   0  0  0  0  0  0  0  0  0  0  0  0
    1.7042   -5.1417    0.0000 C   0  0  0  0  0  0  0  0  0  0  0  0
    2.4292   -6.3792    0.0000 C   0  0  0  0  0  0  0  0  0  0  0  0
    0.2375   -4.2500    0.0000 S   0  0  0  0  0  0  0  0  0  0  0  0
    1.7042   -4.3167    0.0000 S   0  0  0  0  0  0  0  0  0  0  0  0
    0.9000   -3.0917    0.0000 N   0  0  0  0  0  0  0  0  0  0  0  0
    3.2167   -6.6292    0.0000 S   0  0  0  0  0  0  0  0  0  0  0  0
    0.0917   -2.9250    0.0000 N   0  0  0  0  0  0  0  0  0  0  0  0
    3.2042   -5.2917    0.0000 C   0  0  0  0  0  0  0  0  0  0  0  0
   -0.3208   -3.6417    0.0000 C   0  0  0  0  0  0  0  0  0  0  0  0
    1.7042   -6.8000    0.0000 N   0  0  0  0  0  0  0  0  0  0  0  0
    0.9917   -5.5625    0.0000 N   0  0  0  0  0  0  0  0  0  0  0  0
    3.7000   -5.9625    0.0000 C   0  0  0  0  0  0  0  0  0  0  0  0
    0.9917   -6.3875    0.0000 C   0  0  0  0  0  0  0  0  0  0  0  0
    4.5250   -5.9542    0.0000 C   0  0  0  0  0  0  0  0  0  0  0  0
   -1.1375   -3.7292    0.0000 C   0  0  0  0  0  0  0  0  0  0  0  0
    4.9292   -5.2417    0.0000 C   0  0  0  0  0  0  0  0  0  0  0  0
  2  6  1  0
  3  1  2  0
  4  1  1  0
  5  2  1  0
  6  3  1  0
  7  2  2  0
  8  4  1  0
  9  7  1  0
 10  1  1  0
 11  5  1  0
 12  4  2  0
 13  3  1  0
 14 10  2  0
 15 12  1  0
 16 14  1  0
 17 11  1  0
 18 16  1  0
  8 14  1  0
 13 15  2  0
  9 11  2  0
M  END

> <chembl_id>
CHEMBL267127

> <chembl_pref_name>
None

$$$$

     RDKit          2D

 18 20  0  0  0  0  0  0  0  0999 V2000
    2.4250   -5.5542    0.0000 C   0  0  0  0  0  0  0  0  0  0  0  0
    0.9917   -3.9125    0.0000 C   0  0  0  0  0  0  0  0  0  0  0  0
    1.7042   -5.1417    0.0000 C   0  0  0  0  0  0  0  0  0  0  0  0
    2.4292   -6.3792    0.0000 C   0  0  0  0  0  0  0  0  0  0  0  0
    0.2375   -4.2500    0.0000 S   0  0  0  0  0  0  0  0  0  0  0  0
    1.7042   -4.3167    0.0000 N   0  0  0  0  0  0  0  0  0  0  0  0
    0.9000   -3.0917    0.0000 N   0  0  0  0  0  0  0  0  0  0  0  0
    3.2167   -6.6292    0.0000 S   0  0  0  0  0  0  0  0  0  0  0  0
    0.0917   -2.9250    0.0000 N   0  0  0  0  0  0  0  0  0  0  0  0
    3.2042   -5.2917    0.0000 C   0  0  0  0  0  0  0  0  0  0  0  0
   -0.3208   -3.6417    0.0000 C   0  0  0  0  0  0  0  0  0  0  0  0
    1.7042   -6.8000    0.0000 N   0  0  0  0  0  0  0  0  0  0  0  0
    0.9917   -5.5625    0.0000 N   0  0  0  0  0  0  0  0  0  0  0  0
    3.7000   -5.9625    0.0000 C   0  0  0  0  0  0  0  0  0  0  0  0
    0.9917   -6.3875    0.0000 C   0  0  0  0  0  0  0  0  0  0  0  0
    4.5250   -5.9542    0.0000 C   0  0  0  0  0  0  0  0  0  0  0  0
   -1.1375   -3.7292    0.0000 C   0  0  0  0  0  0  0  0  0  0  0  0
    4.9292   -5.2417    0.0000 C   0  0  0  0  0  0  0  0  0  0  0  0
  2  6  1  0
  3  1  2  0
  4  1  1  0
  5  2  1  0
  6  3  1  0
  7  2  2  0
  8  4  1  0
  9  7  1  0
 10  1  1  0
 11  5  1  0
 12  4  2  0
 13  3  1  0
 14 10  2  0
 15 12  1  0
 16 14  1  0
 17 11  1  0
 18 16  1  0
  8 14  1  0
 13 15  2  0
  9 11  2  0
M  END

> <chembl_id>
CHEMBL269495

> <chembl_pref_name>
None

$$$$

     RDKit          2D

 20 22  0  0  0  0  0  0  0  0999 V2000
    4.6792   -7.0917    0.0000 C   0  0  0  0  0  0  0  0  0  0  0  0
    4.1875   -6.4292    0.0000 C   0  0  0  0  0  0  0  0  0  0  0  0
    3.4042   -6.6917    0.0000 C   0  0  0  0  0  0  0  0  0  0  0  0
    4.1917   -7.7667    0.0000 S   0  0  0  0  0  0  0  0  0  0  0  0
    3.4042   -7.5167    0.0000 C   0  0  0  0  0  0  0  0  0  0  0  0
    2.6875   -6.2792    0.0000 C   0  0  0  0  0  0  0  0  0  0  0  0
    5.5042   -7.0917    0.0000 C   0  0  0  0  0  0  0  0  0  0  0  0
    2.6792   -5.4542    0.0000 S   0  0  0  0  0  0  0  0  0  0  0  0
    1.9750   -7.5167    0.0000 N   0  0  0  0  0  0  0  0  0  0  0  0
    5.9125   -6.3750    0.0000 O   0  0  0  0  0  0  0  0  0  0  0  0
    2.1167   -4.8542    0.0000 C   0  0  0  0  0  0  0  0  0  0  0  0
    5.9167   -7.8042    0.0000 N   0  0  0  0  0  0  0  0  0  0  0  0
    2.6875   -7.9292    0.0000 C   0  0  0  0  0  0  0  0  0  0  0  0
    1.9750   -6.6917    0.0000 C   0  0  0  0  0  0  0  0  0  0  0  0
    0.9917   -3.6542    0.0000 C   0  0  0  0  0  0  0  0  0  0  0  0
    2.3542   -4.0667    0.0000 C   0  0  0  0  0  0  0  0  0  0  0  0
    1.3167   -5.0500    0.0000 C   0  0  0  0  0  0  0  0  0  0  0  0
    0.7542   -4.4542    0.0000 C   0  0  0  0  0  0  0  0  0  0  0  0
    1.7917   -3.4667    0.0000 C   0  0  0  0  0  0  0  0  0  0  0  0
    0.4250   -3.0625    0.0000 C   0  0  0  0  0  0  0  0  0  0  0  0
  2  1  2  0
  3  2  1  0
  4  1  1  0
  5  4  1  0
  6  3  1  0
  7  1  1  0
  8  6  1  0
  9 13  2  0
 10  7  2  0
 11  8  1  0
 12  7  1  0
 13  5  1  0
 14  6  2  0
 15 18  1  0
 16 11  2  0
 17 11  1  0
 18 17  2  0
 19 16  1  0
 20 15  1  0
  3  5  2  0
 14  9  1  0
 19 15  2  0
M  END

> <chembl_id>
CHEMBL267678

> <chembl_pref_name>
None

$$$$

     RDKit          2D

 20 22  0  0  0  0  0  0  0  0999 V2000
    1.0542   -7.8125    0.0000 C   0  0  0  0  0  0  0  0  0  0  0  0
    2.3292   -8.2167    0.0000 C   0  0  0  0  0  0  0  0  0  0  0  0
    1.0625   -8.6375    0.0000 C   0  0  0  0  0  0  0  0  0  0  0  0
    1.8417   -7.5500    0.0000 C   0  0  0  0  0  0  0  0  0  0  0  0
    1.8500   -8.8875    0.0000 S   0  0  0  0  0  0  0  0  0  0  0  0
    0.3417   -7.4000    0.0000 C   0  0  0  0  0  0  0  0  0  0  0  0
    3.1542   -8.2125    0.0000 C   0  0  0  0  0  0  0  0  0  0  0  0
    0.3375   -6.5792    0.0000 S   0  0  0  0  0  0  0  0  0  0  0  0
    0.3417   -9.0542    0.0000 N   0  0  0  0  0  0  0  0  0  0  0  0
    3.5667   -7.4917    0.0000 O   0  0  0  0  0  0  0  0  0  0  0  0
   -0.2333   -5.9792    0.0000 C   0  0  0  0  0  0  0  0  0  0  0  0
    3.5750   -8.9250    0.0000 N   0  0  0  0  0  0  0  0  0  0  0  0
   -0.3708   -7.8125    0.0000 C   0  0  0  0  0  0  0  0  0  0  0  0
   -0.3708   -8.6417    0.0000 C   0  0  0  0  0  0  0  0  0  0  0  0
   -1.3583   -4.7792    0.0000 C   0  0  0  0  0  0  0  0  0  0  0  0
    0.0125   -5.1917    0.0000 C   0  0  0  0  0  0  0  0  0  0  0  0
   -1.0250   -6.1667    0.0000 C   0  0  0  0  0  0  0  0  0  0  0  0
   -1.5958   -5.5750    0.0000 C   0  0  0  0  0  0  0  0  0  0  0  0
   -0.5500   -4.5917    0.0000 C   0  0  0  0  0  0  0  0  0  0  0  0
   -1.9208   -4.1792    0.0000 C   0  0  0  0  0  0  0  0  0  0  0  0
  2  4  2  0
  3  1  2  0
  4  1  1  0
  5  3  1  0
  6  1  1  0
  7  2  1  0
  8  6  1  0
  9  3  1  0
 10  7  2  0
 11  8  1  0
 12  7  1  0
 13  6  2  0
 14 13  1  0
 15 18  1  0
 16 11  2  0
 17 11  1  0
 18 17  2  0
 19 16  1  0
 20 15  1  0
  5  2  1  0
  9 14  2  0
 19 15  2  0
M  END

> <chembl_id>
CHEMBL267914

> <chembl_pref_name>
None

$$$$

     RDKit          2D

 18 19  0  0  0  0  0  0  0  0999 V2000
    3.4542   -5.2167    0.0000 C   0  0  0  0  0  0  0  0  0  0  0  0
    2.9667   -4.5500    0.0000 C   0  0  0  0  0  0  0  0  0  0  0  0
    2.9750   -5.8875    0.0000 S   0  0  0  0  0  0  0  0  0  0  0  0
    2.1792   -4.8125    0.0000 C   0  0  0  0  0  0  0  0  0  0  0  0
    2.1875   -5.6375    0.0000 C   0  0  0  0  0  0  0  0  0  0  0  0
    4.2792   -5.2125    0.0000 C   0  0  0  0  0  0  0  0  0  0  0  0
    3.2167   -3.7667    0.0000 O   0  0  0  0  0  0  0  0  0  0  0  0
    1.4667   -4.4000    0.0000 C   0  0  0  0  0  0  0  0  0  0  0  0
    4.6917   -4.4917    0.0000 O   0  0  0  0  0  0  0  0  0  0  0  0
    1.4667   -6.0542    0.0000 C   0  0  0  0  0  0  0  0  0  0  0  0
    4.7000   -5.9250    0.0000 N   0  0  0  0  0  0  0  0  0  0  0  0
    0.7542   -4.8125    0.0000 C   0  0  0  0  0  0  0  0  0  0  0  0
    0.7542   -5.6417    0.0000 C   0  0  0  0  0  0  0  0  0  0  0  0
    0.0417   -4.4042    0.0000 O   0  0  0  0  0  0  0  0  0  0  0  0
    2.6625   -3.1542    0.0000 C   0  0  0  0  0  0  0  0  0  0  0  0
    0.0417   -3.5792    0.0000 C   0  0  0  0  0  0  0  0  0  0  0  0
    2.9125   -2.3667    0.0000 C   0  0  0  0  0  0  0  0  0  0  0  0
    1.8542   -3.3292    0.0000 C   0  0  0  0  0  0  0  0  0  0  0  0
  2  1  2  0
  3  1  1  0
  4  2  1  0
  5  3  1  0
  6  1  1  0
  7  2  1  0
  8  4  1  0
  9  6  2  0
 10  5  1  0
 11  6  1  0
 12  8  2  0
 13 10  2  0
 14 12  1  0
 15  7  1  0
 16 14  1  0
 17 15  1  0
 18 15  1  0
  4  5  2  0
 12 13  1  0
M  END

> <chembl_id>
CHEMBL6248

> <chembl_pref_name>
None

$$$$

     RDKit          2D

 27 30  0  0  0  0  0  0  0  0999 V2000
   -4.4925  -10.1131    0.0000 C   0  0  0  0  0  0  0  0  0  0  0  0
   -3.7737   -9.6999    0.0000 C   0  0  0  0  0  0  0  0  0  0  0  0
   -3.7769   -8.8695    0.0000 C   0  0  0  0  0  0  0  0  0  0  0  0
   -4.4945   -8.4610    0.0000 C   0  0  0  0  0  0  0  0  0  0  0  0
   -5.2049   -9.7005    0.0000 C   0  0  0  0  0  0  0  0  0  0  0  0
   -5.2036   -8.8719    0.0000 C   0  0  0  0  0  0  0  0  0  0  0  0
   -3.1486  -11.6281    0.0000 C   0  0  0  0  0  0  0  0  0  0  0  0
   -3.9745  -11.6714    0.0000 C   0  0  0  0  0  0  0  0  0  0  0  0
   -4.3480  -12.4051    0.0000 C   0  0  0  0  0  0  0  0  0  0  0  0
   -3.8967  -13.1005    0.0000 C   0  0  0  0  0  0  0  0  0  0  0  0
   -3.0676  -13.0526    0.0000 C   0  0  0  0  0  0  0  0  0  0  0  0
   -2.6985  -12.3139    0.0000 N   0  0  0  0  0  0  0  0  0  0  0  0
   -2.7765  -10.8932    0.0000 C   0  0  0  0  0  0  0  0  0  0  0  0
   -1.9517  -10.8655    0.0000 N   0  0  0  0  0  0  0  0  0  0  0  0
   -1.7213  -10.0738    0.0000 C   0  0  0  0  0  0  0  0  0  0  0  0
   -2.4033   -9.6102    0.0000 N   0  0  0  0  0  0  0  0  0  0  0  0
   -3.0547  -10.1154    0.0000 C   0  0  0  0  0  0  0  0  0  0  0  0
   -5.9174   -8.4598    0.0000 F   0  0  0  0  0  0  0  0  0  0  0  0
   -1.0121   -9.6541    0.0000 C   0  0  0  0  0  0  0  0  0  0  0  0
   -0.2944  -10.0614    0.0000 C   0  0  0  0  0  0  0  0  0  0  0  0
    0.4142   -9.6424    0.0000 C   0  0  0  0  0  0  0  0  0  0  0  0
    0.4058   -8.8174    0.0000 C   0  0  0  0  0  0  0  0  0  0  0  0
   -0.3173   -8.4134    0.0000 C   0  0  0  0  0  0  0  0  0  0  0  0
   -1.0231   -8.8346    0.0000 C   0  0  0  0  0  0  0  0  0  0  0  0
    1.1147   -8.3967    0.0000 C   0  0  0  0  0  0  0  0  0  0  0  0
    1.8334   -8.8001    0.0000 O   0  0  0  0  0  0  0  0  0  0  0  0
    1.1048   -7.5724    0.0000 O   0  0  0  0  0  0  0  0  0  0  0  0
 13 14  1  0
  2  3  1  0
  7  8  2  0
  3  4  2  0
 14 15  1  0
 15 16  2  0
 16 17  1  0
 17 13  2  0
 17  2  1  0
  8  9  1  0
  6 18  1  0
  4  6  1  0
 15 19  1  0
  9 10  2  0
 19 20  2  0
  5  6  2  0
 20 21  1  0
 10 11  1  0
 21 22  2  0
  1  2  2  0
 22 23  1  0
 11 12  2  0
 23 24  2  0
 24 19  1  0
 12  7  1  0
 22 25  1  0
  5  1  1  0
 25 26  1  0
  7 13  1  0
 25 27  2  0
M  END

> <chembl_id>
CHEMBL269339

> <chembl_pref_name>
None

$$$$

     RDKit          2D

 28 32  0  0  0  0  0  0  0  0999 V2000
   12.5790  -11.6959    0.0000 C   0  0  0  0  0  0  0  0  0  0  0  0
   13.2976  -11.2829    0.0000 C   0  0  0  0  0  0  0  0  0  0  0  0
   13.2944  -10.4525    0.0000 C   0  0  0  0  0  0  0  0  0  0  0  0
   12.5770  -10.0441    0.0000 C   0  0  0  0  0  0  0  0  0  0  0  0
   11.8666  -11.2833    0.0000 C   0  0  0  0  0  0  0  0  0  0  0  0
   11.8680  -10.4550    0.0000 C   0  0  0  0  0  0  0  0  0  0  0  0
   11.0805  -10.1976    0.0000 O   0  0  0  0  0  0  0  0  0  0  0  0
   10.5925  -10.8671    0.0000 C   0  0  0  0  0  0  0  0  0  0  0  0
   11.0783  -11.5379    0.0000 O   0  0  0  0  0  0  0  0  0  0  0  0
   13.9226  -13.2107    0.0000 C   0  0  0  0  0  0  0  0  0  0  0  0
   13.0969  -13.2541    0.0000 C   0  0  0  0  0  0  0  0  0  0  0  0
   12.7234  -13.9877    0.0000 C   0  0  0  0  0  0  0  0  0  0  0  0
   13.1747  -14.6830    0.0000 C   0  0  0  0  0  0  0  0  0  0  0  0
   14.0036  -14.6350    0.0000 C   0  0  0  0  0  0  0  0  0  0  0  0
   14.3727  -13.8964    0.0000 N   0  0  0  0  0  0  0  0  0  0  0  0
   14.2947  -12.4758    0.0000 C   0  0  0  0  0  0  0  0  0  0  0  0
   15.1193  -12.4481    0.0000 N   0  0  0  0  0  0  0  0  0  0  0  0
   15.3497  -11.6566    0.0000 C   0  0  0  0  0  0  0  0  0  0  0  0
   14.6678  -11.1932    0.0000 N   0  0  0  0  0  0  0  0  0  0  0  0
   14.0166  -11.6983    0.0000 C   0  0  0  0  0  0  0  0  0  0  0  0
   16.0588  -11.2370    0.0000 C   0  0  0  0  0  0  0  0  0  0  0  0
   16.7763  -11.6442    0.0000 C   0  0  0  0  0  0  0  0  0  0  0  0
   17.4849  -11.2253    0.0000 C   0  0  0  0  0  0  0  0  0  0  0  0
   17.4765  -10.4005    0.0000 C   0  0  0  0  0  0  0  0  0  0  0  0
   16.7536   -9.9964    0.0000 C   0  0  0  0  0  0  0  0  0  0  0  0
   16.0479  -10.4177    0.0000 C   0  0  0  0  0  0  0  0  0  0  0  0
   18.1853   -9.9798    0.0000 C   0  0  0  0  0  0  0  0  0  0  0  0
   18.8967   -9.5599    0.0000 N   0  0  0  0  0  0  0  0  0  0  0  0
 13 14  1  0
 14 15  2  0
 15 10  1  0
  3  4  2  0
 10 16  1  0
 16 17  1  0
  6  7  1  0
  7  8  1  0
  8  9  1  0
  9  5  1  0
 17 18  1  0
 18 19  2  0
 19 20  1  0
 20 16  2  0
 20  2  1  0
  4  6  1  0
 18 21  1  0
  5  6  2  0
 21 22  2  0
 10 11  2  0
 22 23  1  0
  1  2  2  0
 23 24  2  0
 11 12  1  0
 24 25  1  0
  5  1  1  0
 25 26  2  0
 26 21  1  0
 12 13  2  0
 24 27  1  0
  2  3  1  0
 27 28  3  0
M  END

> <chembl_id>
CHEMBL269341

> <chembl_pref_name>
None

$$$$

     RDKit          2D

 29 33  0  0  0  0  0  0  0  0999 V2000
    7.4028    4.3154    0.0000 N   0  0  0  0  0  0  0  0  0  0  0  0
    7.8877    3.6480    0.0000 C   0  0  0  0  0  0  0  0  0  0  0  0
    8.7082    3.7342    0.0000 O   0  0  0  0  0  0  0  0  0  0  0  0
    7.5521    2.8943    0.0000 C   0  0  0  0  0  0  0  0  0  0  0  0
    8.0370    2.2269    0.0000 C   0  0  0  0  0  0  0  0  0  0  0  0
    7.7015    1.4732    0.0000 C   0  0  0  0  0  0  0  0  0  0  0  0
    6.8810    1.3870    0.0000 C   0  0  0  0  0  0  0  0  0  0  0  0
    6.3961    2.0544    0.0000 C   0  0  0  0  0  0  0  0  0  0  0  0
    6.7316    2.8081    0.0000 C   0  0  0  0  0  0  0  0  0  0  0  0
    6.5455    0.6333    0.0000 C   0  0  0  0  0  0  0  0  0  0  0  0
    6.9580   -0.0812    0.0000 N   0  0  0  0  0  0  0  0  0  0  0  0
    6.4059   -0.6943    0.0000 C   0  0  0  0  0  0  0  0  0  0  0  0
    5.6522   -0.3587    0.0000 C   0  0  0  0  0  0  0  0  0  0  0  0
    5.7385    0.4618    0.0000 N   0  0  0  0  0  0  0  0  0  0  0  0
    4.9378   -0.7712    0.0000 C   0  0  0  0  0  0  0  0  0  0  0  0
    4.9378   -1.5962    0.0000 C   0  0  0  0  0  0  0  0  0  0  0  0
    4.2233   -2.0087    0.0000 C   0  0  0  0  0  0  0  0  0  0  0  0
    3.5088   -1.5962    0.0000 C   0  0  0  0  0  0  0  0  0  0  0  0
    2.7242   -1.8511    0.0000 O   0  0  0  0  0  0  0  0  0  0  0  0
    2.2393   -1.1837    0.0000 C   0  0  0  0  0  0  0  0  0  0  0  0
    2.7242   -0.5163    0.0000 O   0  0  0  0  0  0  0  0  0  0  0  0
    3.5088   -0.7712    0.0000 C   0  0  0  0  0  0  0  0  0  0  0  0
    4.2233   -0.3587    0.0000 C   0  0  0  0  0  0  0  0  0  0  0  0
    6.5774   -1.5012    0.0000 C   0  0  0  0  0  0  0  0  0  0  0  0
    7.3621   -1.7562    0.0000 C   0  0  0  0  0  0  0  0  0  0  0  0
    7.5336   -2.5631    0.0000 C   0  0  0  0  0  0  0  0  0  0  0  0
    6.9205   -3.1152    0.0000 C   0  0  0  0  0  0  0  0  0  0  0  0
    6.1359   -2.8602    0.0000 C   0  0  0  0  0  0  0  0  0  0  0  0
    5.9644   -2.0533    0.0000 N   0  0  0  0  0  0  0  0  0  0  0  0
  1  2  1  0
  2  3  2  0
  2  4  1  0
  4  5  2  0
  5  6  1  0
  6  7  2  0
  7  8  1  0
  8  9  2  0
  4  9  1  0
  7 10  1  0
 10 11  2  0
 11 12  1  0
 12 13  2  0
 13 14  1  0
 10 14  1  0
 13 15  1  0
 15 16  2  0
 16 17  1  0
 17 18  2  0
 18 19  1  0
 19 20  1  0
 20 21  1  0
 21 22  1  0
 18 22  1  0
 22 23  2  0
 15 23  1  0
 12 24  1  0
 24 25  2  0
 25 26  1  0
 26 27  2  0
 27 28  1  0
 28 29  2  0
 24 29  1  0
M  END

> <chembl_id>
CHEMBL440084

> <chembl_pref_name>
SB-431542

$$$$

     RDKit          2D

 28 32  0  0  0  0  0  0  0  0999 V2000
    5.8173    7.0221    0.0000 O   0  0  0  0  0  0  0  0  0  0  0  0
    6.3022    6.3547    0.0000 C   0  0  0  0  0  0  0  0  0  0  0  0
    5.9666    5.6010    0.0000 C   0  0  0  0  0  0  0  0  0  0  0  0
    6.4516    4.9335    0.0000 C   0  0  0  0  0  0  0  0  0  0  0  0
    6.1160    4.1799    0.0000 C   0  0  0  0  0  0  0  0  0  0  0  0
    5.2955    4.0936    0.0000 C   0  0  0  0  0  0  0  0  0  0  0  0
    4.8106    4.7611    0.0000 C   0  0  0  0  0  0  0  0  0  0  0  0
    5.1462    5.5147    0.0000 C   0  0  0  0  0  0  0  0  0  0  0  0
    4.9600    3.3400    0.0000 C   0  0  0  0  0  0  0  0  0  0  0  0
    5.3725    2.6255    0.0000 N   0  0  0  0  0  0  0  0  0  0  0  0
    4.8204    2.0124    0.0000 C   0  0  0  0  0  0  0  0  0  0  0  0
    4.0668    2.3479    0.0000 C   0  0  0  0  0  0  0  0  0  0  0  0
    4.1530    3.1684    0.0000 N   0  0  0  0  0  0  0  0  0  0  0  0
    3.3523    1.9354    0.0000 C   0  0  0  0  0  0  0  0  0  0  0  0
    3.3523    1.1104    0.0000 C   0  0  0  0  0  0  0  0  0  0  0  0
    2.6378    0.6979    0.0000 C   0  0  0  0  0  0  0  0  0  0  0  0
    1.9233    1.1104    0.0000 C   0  0  0  0  0  0  0  0  0  0  0  0
    1.1387    0.8555    0.0000 O   0  0  0  0  0  0  0  0  0  0  0  0
    0.6538    1.5229    0.0000 C   0  0  0  0  0  0  0  0  0  0  0  0
    1.1387    2.1904    0.0000 O   0  0  0  0  0  0  0  0  0  0  0  0
    1.9233    1.9354    0.0000 C   0  0  0  0  0  0  0  0  0  0  0  0
    2.6378    2.3479    0.0000 C   0  0  0  0  0  0  0  0  0  0  0  0
    4.9920    1.2054    0.0000 C   0  0  0  0  0  0  0  0  0  0  0  0
    5.7766    0.9505    0.0000 C   0  0  0  0  0  0  0  0  0  0  0  0
    5.9481    0.1435    0.0000 C   0  0  0  0  0  0  0  0  0  0  0  0
    5.3350   -0.4085    0.0000 C   0  0  0  0  0  0  0  0  0  0  0  0
    4.5504   -0.1536    0.0000 C   0  0  0  0  0  0  0  0  0  0  0  0
    4.3789    0.6534    0.0000 N   0  0  0  0  0  0  0  0  0  0  0  0
  1  2  1  0
  2  3  1  0
  3  4  2  0
  4  5  1  0
  5  6  2  0
  6  7  1  0
  7  8  2  0
  3  8  1  0
  6  9  1  0
  9 10  2  0
 10 11  1  0
 11 12  2  0
 12 13  1  0
  9 13  1  0
 12 14  1  0
 14 15  2  0
 15 16  1  0
 16 17  2  0
 17 18  1  0
 18 19  1  0
 19 20  1  0
 20 21  1  0
 17 21  1  0
 21 22  2  0
 14 22  1  0
 11 23  1  0
 23 24  2  0
 24 25  1  0
 25 26  2  0
 26 27  1  0
 27 28  2  0
 23 28  1  0
M  END

> <chembl_id>
CHEMBL267228

> <chembl_pref_name>
None

$$$$

     RDKit          2D

 27 30  0  0  0  0  0  0  0  0999 V2000
    2.5042   -0.3000    0.0000 N   0  0  0  0  0  0  0  0  0  0  0  0
    1.7250   -0.5417    0.0000 C   0  0  0  0  0  0  0  0  0  0  0  0
    2.4917   -1.6292    0.0000 N   0  0  0  0  0  0  0  0  0  0  0  0
    1.7167   -1.3667    0.0000 C   0  0  0  0  0  0  0  0  0  0  0  0
    2.9917   -0.9667    0.0000 C   0  0  0  0  0  0  0  0  0  0  0  0
    6.2917   -0.9917    0.0000 C   0  0  0  0  0  0  0  0  0  0  0  0
    0.9667   -0.2042    0.0000 C   0  0  0  0  0  0  0  0  0  0  0  0
    3.8167   -0.9750    0.0000 C   0  0  0  0  0  0  0  0  0  0  0  0
    5.4667   -0.9917    0.0000 C   0  0  0  0  0  0  0  0  0  0  0  0
    1.0000   -1.7792    0.0000 C   0  0  0  0  0  0  0  0  0  0  0  0
    6.7042   -0.2875    0.0000 O   0  0  0  0  0  0  0  0  0  0  0  0
   -0.4333   -2.5875    0.0000 N   0  0  0  0  0  0  0  0  0  0  0  0
    4.2167   -1.6917    0.0000 C   0  0  0  0  0  0  0  0  0  0  0  0
    4.2292   -0.2667    0.0000 C   0  0  0  0  0  0  0  0  0  0  0  0
    5.0542   -0.2667    0.0000 C   0  0  0  0  0  0  0  0  0  0  0  0
    5.0417   -1.7000    0.0000 C   0  0  0  0  0  0  0  0  0  0  0  0
    0.8875    0.6250    0.0000 C   0  0  0  0  0  0  0  0  0  0  0  0
    0.2917   -0.6875    0.0000 C   0  0  0  0  0  0  0  0  0  0  0  0
    6.6917   -1.7125    0.0000 O   0  0  0  0  0  0  0  0  0  0  0  0
   -0.5458    0.4833    0.0000 C   0  0  0  0  0  0  0  0  0  0  0  0
    0.1292    0.9708    0.0000 C   0  0  0  0  0  0  0  0  0  0  0  0
   -0.4625   -0.3500    0.0000 C   0  0  0  0  0  0  0  0  0  0  0  0
   -1.2625    0.8958    0.0000 F   0  0  0  0  0  0  0  0  0  0  0  0
    0.2792   -3.0042    0.0000 C   0  0  0  0  0  0  0  0  0  0  0  0
   -0.4333   -1.7625    0.0000 C   0  0  0  0  0  0  0  0  0  0  0  0
    0.9917   -2.5917    0.0000 C   0  0  0  0  0  0  0  0  0  0  0  0
    0.2875   -1.3542    0.0000 C   0  0  0  0  0  0  0  0  0  0  0  0
  2  1  1  0
  3  5  1  0
  4  2  2  0
  5  1  2  0
  6  9  1  0
  7  2  1  0
  8  5  1  0
  9 15  1  0
 10  4  1  0
 11  6  2  0
 12 25  2  0
 13  8  2  0
 14  8  1  0
 15 14  2  0
 16 13  1  0
 17  7  2  0
 18  7  1  0
 19  6  1  0
 20 22  1  0
 21 17  1  0
 22 18  2  0
 23 20  1  0
 24 26  2  0
 25 27  1  0
 26 10  1  0
 27 10  2  0
  4  3  1  0
 16  9  2  0
 21 20  2  0
 24 12  1  0
M  END

> <chembl_id>
CHEMBL6252

> <chembl_pref_name>
None

$$$$

     RDKit          2D

 29 33  0  0  0  0  0  0  0  0999 V2000
    8.6417   -0.8917    0.0000 C   0  0  0  0  0  0  0  0  0  0  0  0
    9.2417   -0.9000    0.0000 C   0  0  0  0  0  0  0  0  0  0  0  0
    9.5917   -1.3875    0.0000 C   0  0  0  0  0  0  0  0  0  0  0  0
    8.3792   -1.4292    0.0000 C   0  0  0  0  0  0  0  0  0  0  0  0
    8.4667   -0.3250    0.0000 C   0  0  0  0  0  0  0  0  0  0  0  0
    9.4292   -0.3292    0.0000 C   0  0  0  0  0  0  0  0  0  0  0  0
    8.9500    0.0250    0.0000 N   0  0  0  0  0  0  0  0  0  0  0  0
    9.5792   -1.9917    0.0000 C   0  0  0  0  0  0  0  0  0  0  0  0
    8.6542   -1.9667    0.0000 C   0  0  0  0  0  0  0  0  0  0  0  0
   10.1542   -2.1792    0.0000 N   0  0  0  0  0  0  0  0  0  0  0  0
    8.2292   -2.3917    0.0000 N   0  0  0  0  0  0  0  0  0  0  0  0
    7.7792   -1.5292    0.0000 C   0  0  0  0  0  0  0  0  0  0  0  0
   10.1667   -1.2125    0.0000 C   0  0  0  0  0  0  0  0  0  0  0  0
   10.5125   -1.7042    0.0000 C   0  0  0  0  0  0  0  0  0  0  0  0
    7.6917   -2.1292    0.0000 C   0  0  0  0  0  0  0  0  0  0  0  0
   10.0042   -0.1500    0.0000 O   0  0  0  0  0  0  0  0  0  0  0  0
    7.8917   -0.1375    0.0000 O   0  0  0  0  0  0  0  0  0  0  0  0
    8.3292   -2.9875    0.0000 C   0  0  0  0  0  0  0  0  0  0  0  0
   10.3292   -2.7542    0.0000 C   0  0  0  0  0  0  0  0  0  0  0  0
    7.3125   -1.1542    0.0000 C   0  0  0  0  0  0  0  0  0  0  0  0
   10.4125   -0.6667    0.0000 C   0  0  0  0  0  0  0  0  0  0  0  0
    7.9667   -3.9625    0.0000 N   0  0  0  0  0  0  0  0  0  0  0  0
    7.1292   -2.3417    0.0000 C   0  0  0  0  0  0  0  0  0  0  0  0
   11.1042   -1.6417    0.0000 C   0  0  0  0  0  0  0  0  0  0  0  0
    7.8667   -3.3667    0.0000 C   0  0  0  0  0  0  0  0  0  0  0  0
   11.0042   -0.6125    0.0000 C   0  0  0  0  0  0  0  0  0  0  0  0
    6.7542   -1.3750    0.0000 C   0  0  0  0  0  0  0  0  0  0  0  0
    6.6667   -1.9667    0.0000 C   0  0  0  0  0  0  0  0  0  0  0  0
   11.3542   -1.1042    0.0000 C   0  0  0  0  0  0  0  0  0  0  0  0
  2  1  2  0
  3  2  1  0
  4  1  1  0
  5  1  1  0
  6  2  1  0
  7  5  1  0
  8  3  2  0
  9  4  2  0
 10  8  1  0
 11  9  1  0
 12  4  1  0
 13  3  1  0
 14 13  2  0
 15 12  2  0
 16  6  2  0
 17  5  2  0
 18 11  1  0
 19 10  1  0
 20 12  1  0
 21 13  1  0
 22 25  1  0
 23 15  1  0
 24 14  1  0
 25 18  1  0
 26 21  2  0
 27 20  2  0
 28 27  1  0
 29 26  1  0
  7  6  1  0
 11 15  1  0
 14 10  1  0
 28 23  2  0
 29 24  2  0
M  END

> <chembl_id>
CHEMBL268529

> <chembl_pref_name>
None

$$$$

     RDKit          2D

 32 36  0  0  0  0  0  0  0  0999 V2000
    9.4167    1.4583    0.0000 C   0  0  0  0  0  0  0  0  0  0  0  0
   10.0167    1.4500    0.0000 C   0  0  0  0  0  0  0  0  0  0  0  0
   10.3625    0.9625    0.0000 C   0  0  0  0  0  0  0  0  0  0  0  0
    9.1500    0.9208    0.0000 C   0  0  0  0  0  0  0  0  0  0  0  0
    9.2375    2.0250    0.0000 C   0  0  0  0  0  0  0  0  0  0  0  0
   10.2042    2.0208    0.0000 C   0  0  0  0  0  0  0  0  0  0  0  0
    9.7167    2.3750    0.0000 N   0  0  0  0  0  0  0  0  0  0  0  0
   10.3542    0.3583    0.0000 C   0  0  0  0  0  0  0  0  0  0  0  0
    9.4250    0.3833    0.0000 C   0  0  0  0  0  0  0  0  0  0  0  0
    9.0042   -0.0417    0.0000 N   0  0  0  0  0  0  0  0  0  0  0  0
   10.9250    0.1708    0.0000 N   0  0  0  0  0  0  0  0  0  0  0  0
    8.5542    0.8208    0.0000 C   0  0  0  0  0  0  0  0  0  0  0  0
   10.9375    1.1375    0.0000 C   0  0  0  0  0  0  0  0  0  0  0  0
   11.2792    0.6458    0.0000 C   0  0  0  0  0  0  0  0  0  0  0  0
    8.4667    0.2208    0.0000 C   0  0  0  0  0  0  0  0  0  0  0  0
    8.7292   -2.2125    0.0000 C   0  0  0  0  0  0  0  0  0  0  0  0
    8.6667    2.2125    0.0000 O   0  0  0  0  0  0  0  0  0  0  0  0
   10.7792    2.2083    0.0000 O   0  0  0  0  0  0  0  0  0  0  0  0
    8.2042   -2.5042    0.0000 N   0  0  0  0  0  0  0  0  0  0  0  0
    8.7375   -1.6125    0.0000 S   0  0  0  0  0  0  0  0  0  0  0  0
    9.2500   -2.5167    0.0000 N   0  0  0  0  0  0  0  0  0  0  0  0
    9.1000   -0.6375    0.0000 C   0  0  0  0  0  0  0  0  0  0  0  0
   11.1000   -0.4042    0.0000 C   0  0  0  0  0  0  0  0  0  0  0  0
    8.6375   -1.0167    0.0000 C   0  0  0  0  0  0  0  0  0  0  0  0
   11.1792    1.6833    0.0000 C   0  0  0  0  0  0  0  0  0  0  0  0
    8.0792    1.1958    0.0000 C   0  0  0  0  0  0  0  0  0  0  0  0
    7.9042    0.0083    0.0000 C   0  0  0  0  0  0  0  0  0  0  0  0
   11.8792    0.7083    0.0000 C   0  0  0  0  0  0  0  0  0  0  0  0
    7.5250    0.9750    0.0000 C   0  0  0  0  0  0  0  0  0  0  0  0
   11.7792    1.7375    0.0000 C   0  0  0  0  0  0  0  0  0  0  0  0
   12.1292    1.2458    0.0000 C   0  0  0  0  0  0  0  0  0  0  0  0
    7.4375    0.3833    0.0000 C   0  0  0  0  0  0  0  0  0  0  0  0
  2  1  2  0
  3  2  1  0
  4  1  1  0
  5  1  1  0
  6  2  1  0
  7  5  1  0
  8  3  2  0
  9  4  2  0
 10  9  1  0
 11  8  1  0
 12  4  1  0
 13  3  1  0
 14 13  2  0
 15 12  2  0
 16 20  1  0
 17  5  2  0
 18  6  2  0
 19 16  2  0
 20 24  1  0
 21 16  1  0
 22 10  1  0
 23 11  1  0
 24 22  1  0
 25 13  1  0
 26 12  1  0
 27 15  1  0
 28 14  1  0
 29 26  2  0
 30 25  2  0
 31 30  1  0
 32 29  1  0
  6  7  1  0
 15 10  1  0
 11 14  1  0
 27 32  2  0
 28 31  2  0
M  END

> <chembl_id>
CHEMBL267126

> <chembl_pref_name>
None

$$$$

     RDKit          2D

 35 39  0  0  0  0  0  0  0  0999 V2000
    9.4167    2.0083    0.0000 C   0  0  0  0  0  0  0  0  0  0  0  0
   10.0167    2.0000    0.0000 C   0  0  0  0  0  0  0  0  0  0  0  0
   10.3625    1.5125    0.0000 C   0  0  0  0  0  0  0  0  0  0  0  0
    9.1500    1.4708    0.0000 C   0  0  0  0  0  0  0  0  0  0  0  0
    9.2375    2.5833    0.0000 C   0  0  0  0  0  0  0  0  0  0  0  0
   10.2042    2.5708    0.0000 C   0  0  0  0  0  0  0  0  0  0  0  0
    9.7167    2.9250    0.0000 N   0  0  0  0  0  0  0  0  0  0  0  0
   10.3542    0.9083    0.0000 C   0  0  0  0  0  0  0  0  0  0  0  0
    9.4250    0.9333    0.0000 C   0  0  0  0  0  0  0  0  0  0  0  0
   10.9250    0.7208    0.0000 N   0  0  0  0  0  0  0  0  0  0  0  0
    9.0042    0.5083    0.0000 N   0  0  0  0  0  0  0  0  0  0  0  0
    8.5542    1.3708    0.0000 C   0  0  0  0  0  0  0  0  0  0  0  0
   10.9375    1.6875    0.0000 C   0  0  0  0  0  0  0  0  0  0  0  0
   11.2792    1.1958    0.0000 C   0  0  0  0  0  0  0  0  0  0  0  0
    8.4667    0.7708    0.0000 C   0  0  0  0  0  0  0  0  0  0  0  0
    7.9042   -3.0167    0.0000 C   0  0  0  0  0  0  0  0  0  0  0  0
   10.7792    2.7500    0.0000 O   0  0  0  0  0  0  0  0  0  0  0  0
    8.6667    2.7708    0.0000 O   0  0  0  0  0  0  0  0  0  0  0  0
    7.3792   -3.3042    0.0000 N   0  0  0  0  0  0  0  0  0  0  0  0
    7.9042   -2.4167    0.0000 S   0  0  0  0  0  0  0  0  0  0  0  0
    8.4167   -3.3167    0.0000 N   0  0  0  0  0  0  0  0  0  0  0  0
    9.1000   -0.0875    0.0000 C   0  0  0  0  0  0  0  0  0  0  0  0
   11.1000    0.1458    0.0000 C   0  0  0  0  0  0  0  0  0  0  0  0
    8.0792    1.7458    0.0000 C   0  0  0  0  0  0  0  0  0  0  0  0
   11.1792    2.2333    0.0000 C   0  0  0  0  0  0  0  0  0  0  0  0
   11.8792    1.2583    0.0000 C   0  0  0  0  0  0  0  0  0  0  0  0
    7.9042    0.5583    0.0000 C   0  0  0  0  0  0  0  0  0  0  0  0
    8.3667   -2.0292    0.0000 C   0  0  0  0  0  0  0  0  0  0  0  0
    8.6375   -0.4667    0.0000 C   0  0  0  0  0  0  0  0  0  0  0  0
    8.2750   -1.4417    0.0000 C   0  0  0  0  0  0  0  0  0  0  0  0
    8.7375   -1.0625    0.0000 C   0  0  0  0  0  0  0  0  0  0  0  0
   11.7792    2.2875    0.0000 C   0  0  0  0  0  0  0  0  0  0  0  0
    7.5250    1.5250    0.0000 C   0  0  0  0  0  0  0  0  0  0  0  0
    7.4375    0.9333    0.0000 C   0  0  0  0  0  0  0  0  0  0  0  0
   12.1292    1.7958    0.0000 C   0  0  0  0  0  0  0  0  0  0  0  0
  2  1  2  0
  3  2  1  0
  4  1  1  0
  5  1  1  0
  6  2  1  0
  7  5  1  0
  8  3  2  0
  9  4  2  0
 10  8  1  0
 11  9  1  0
 12  4  1  0
 13  3  1  0
 14 13  2  0
 15 12  2  0
 16 20  1  0
 17  6  2  0
 18  5  2  0
 19 16  2  0
 20 28  1  0
 21 16  1  0
 22 11  1  0
 23 10  1  0
 24 12  1  0
 25 13  1  0
 26 14  1  0
 27 15  1  0
 28 30  1  0
 29 22  1  0
 30 31  1  0
 31 29  1  0
 32 25  2  0
 33 24  2  0
 34 33  1  0
 35 32  1  0
  6  7  1  0
 15 11  1  0
 10 14  1  0
 34 27  2  0
 26 35  2  0
M  END

> <chembl_id>
CHEMBL6274

> <chembl_pref_name>
None

$$$$

     RDKit          2D

 19 21  0  0  0  0  0  0  0  0999 V2000
    2.3125   -7.1917    0.0000 C   0  0  0  0  0  0  0  0  0  0  0  0
    3.1042   -8.2667    0.0000 S   0  0  0  0  0  0  0  0  0  0  0  0
    2.3167   -8.0167    0.0000 C   0  0  0  0  0  0  0  0  0  0  0  0
    3.0917   -6.9292    0.0000 C   0  0  0  0  0  0  0  0  0  0  0  0
    1.5917   -6.7792    0.0000 C   0  0  0  0  0  0  0  0  0  0  0  0
    3.5875   -7.6000    0.0000 C   0  0  0  0  0  0  0  0  0  0  0  0
    1.5917   -5.9625    0.0000 S   0  0  0  0  0  0  0  0  0  0  0  0
    0.8792   -8.0250    0.0000 N   0  0  0  0  0  0  0  0  0  0  0  0
    1.0250   -5.3625    0.0000 C   0  0  0  0  0  0  0  0  0  0  0  0
    1.5917   -8.4375    0.0000 C   0  0  0  0  0  0  0  0  0  0  0  0
    0.8792   -7.2000    0.0000 C   0  0  0  0  0  0  0  0  0  0  0  0
   -0.1000   -4.1625    0.0000 C   0  0  0  0  0  0  0  0  0  0  0  0
    0.2292   -5.5542    0.0000 C   0  0  0  0  0  0  0  0  0  0  0  0
    1.2667   -4.5750    0.0000 C   0  0  0  0  0  0  0  0  0  0  0  0
    0.7042   -3.9750    0.0000 C   0  0  0  0  0  0  0  0  0  0  0  0
   -0.3375   -4.9542    0.0000 C   0  0  0  0  0  0  0  0  0  0  0  0
    4.4125   -7.5917    0.0000 C   0  0  0  0  0  0  0  0  0  0  0  0
    4.8292   -8.3042    0.0000 O   0  0  0  0  0  0  0  0  0  0  0  0
   -0.6708   -3.5667    0.0000 C   0  0  0  0  0  0  0  0  0  0  0  0
  2  3  1  0
  3  1  2  0
  4  1  1  0
  5  1  1  0
  6  4  2  0
  7  5  1  0
  8 11  1  0
  9  7  1  0
 10  3  1  0
 11  5  2  0
 12 15  2  0
 13  9  1  0
 14  9  2  0
 15 14  1  0
 16 13  2  0
 17  6  1  0
 18 17  1  0
 19 12  1  0
  2  6  1  0
  8 10  2  0
 12 16  1  0
M  END

> <chembl_id>
CHEMBL268530

> <chembl_pref_name>
None

$$$$

     RDKit          2D

 21 23  0  0  0  0  0  0  0  0999 V2000
    3.7542   -5.0167    0.0000 C   0  0  0  0  0  0  0  0  0  0  0  0
    3.2667   -4.3500    0.0000 C   0  0  0  0  0  0  0  0  0  0  0  0
    2.4792   -4.6125    0.0000 C   0  0  0  0  0  0  0  0  0  0  0  0
    3.2750   -5.6875    0.0000 S   0  0  0  0  0  0  0  0  0  0  0  0
    2.4875   -5.4375    0.0000 C   0  0  0  0  0  0  0  0  0  0  0  0
    1.7667   -4.1917    0.0000 C   0  0  0  0  0  0  0  0  0  0  0  0
    4.5792   -5.0125    0.0000 C   0  0  0  0  0  0  0  0  0  0  0  0
    1.7625   -3.3792    0.0000 S   0  0  0  0  0  0  0  0  0  0  0  0
    2.4750   -2.9625    0.0000 C   0  0  0  0  0  0  0  0  0  0  0  0
    1.0542   -5.4417    0.0000 N   0  0  0  0  0  0  0  0  0  0  0  0
    4.9875   -4.2917    0.0000 O   0  0  0  0  0  0  0  0  0  0  0  0
    3.9000   -2.9625    0.0000 C   0  0  0  0  0  0  0  0  0  0  0  0
    3.1750   -1.7250    0.0000 C   0  0  0  0  0  0  0  0  0  0  0  0
    3.1875   -3.3750    0.0000 C   0  0  0  0  0  0  0  0  0  0  0  0
    2.4667   -2.1417    0.0000 C   0  0  0  0  0  0  0  0  0  0  0  0
    5.0000   -5.7250    0.0000 N   0  0  0  0  0  0  0  0  0  0  0  0
    3.8917   -2.1292    0.0000 C   0  0  0  0  0  0  0  0  0  0  0  0
    1.7667   -5.8542    0.0000 C   0  0  0  0  0  0  0  0  0  0  0  0
    1.0542   -4.6167    0.0000 C   0  0  0  0  0  0  0  0  0  0  0  0
    3.1667   -0.9000    0.0000 C   0  0  0  0  0  0  0  0  0  0  0  0
    4.6167   -3.3667    0.0000 C   0  0  0  0  0  0  0  0  0  0  0  0
  2  1  2  0
  3  2  1  0
  4  1  1  0
  5  4  1  0
  6  3  1  0
  7  1  1  0
  8  6  1  0
  9  8  1  0
 10 18  2  0
 11  7  2  0
 12 14  1  0
 13 15  2  0
 14  9  2  0
 15  9  1  0
 16  7  1  0
 17 13  1  0
 18  5  1  0
 19  6  2  0
 20 13  1  0
 21 12  1  0
  3  5  2  0
 19 10  1  0
 12 17  2  0
M  END

> <chembl_id>
CHEMBL6275

> <chembl_pref_name>
None

$$$$

     RDKit          2D

 21 23  0  0  0  0  0  0  0  0999 V2000
    3.7542   -5.0167    0.0000 C   0  0  0  0  0  0  0  0  0  0  0  0
    3.2667   -4.3500    0.0000 C   0  0  0  0  0  0  0  0  0  0  0  0
    2.4792   -4.6125    0.0000 C   0  0  0  0  0  0  0  0  0  0  0  0
    3.2750   -5.6875    0.0000 S   0  0  0  0  0  0  0  0  0  0  0  0
    2.4875   -5.4375    0.0000 C   0  0  0  0  0  0  0  0  0  0  0  0
    1.7667   -4.1917    0.0000 C   0  0  0  0  0  0  0  0  0  0  0  0
    4.5792   -5.0125    0.0000 C   0  0  0  0  0  0  0  0  0  0  0  0
    1.7625   -3.3792    0.0000 S   0  0  0  0  0  0  0  0  0  0  0  0
    3.1750   -1.7250    0.0000 C   0  0  0  0  0  0  0  0  0  0  0  0
    1.0542   -5.4417    0.0000 N   0  0  0  0  0  0  0  0  0  0  0  0
    2.4750   -2.9625    0.0000 C   0  0  0  0  0  0  0  0  0  0  0  0
    2.4667   -2.1417    0.0000 C   0  0  0  0  0  0  0  0  0  0  0  0
    3.8917   -2.1292    0.0000 C   0  0  0  0  0  0  0  0  0  0  0  0
    4.9875   -4.2917    0.0000 O   0  0  0  0  0  0  0  0  0  0  0  0
    3.9000   -2.9625    0.0000 C   0  0  0  0  0  0  0  0  0  0  0  0
    5.0000   -5.7250    0.0000 N   0  0  0  0  0  0  0  0  0  0  0  0
    1.7667   -5.8542    0.0000 C   0  0  0  0  0  0  0  0  0  0  0  0
    1.0542   -4.6167    0.0000 C   0  0  0  0  0  0  0  0  0  0  0  0
    3.1875   -3.3750    0.0000 C   0  0  0  0  0  0  0  0  0  0  0  0
    3.1667   -0.9000    0.0000 C   0  0  0  0  0  0  0  0  0  0  0  0
    4.6042   -1.7167    0.0000 C   0  0  0  0  0  0  0  0  0  0  0  0
  2  1  2  0
  3  2  1  0
  4  1  1  0
  5  4  1  0
  6  3  1  0
  7  1  1  0
  8  6  1  0
  9 12  2  0
 10 17  2  0
 11  8  1  0
 12 11  1  0
 13 15  2  0
 14  7  2  0
 15 19  1  0
 16  7  1  0
 17  5  1  0
 18  6  2  0
 19 11  2  0
 20  9  1  0
 21 13  1  0
  3  5  2  0
 18 10  1  0
  9 13  1  0
M  END

> <chembl_id>
CHEMBL267125

> <chembl_pref_name>
None

$$$$

     RDKit          2D

 20 22  0  0  0  0  0  0  0  0999 V2000
    3.7542   -5.0167    0.0000 C   0  0  0  0  0  0  0  0  0  0  0  0
    3.2667   -4.3500    0.0000 C   0  0  0  0  0  0  0  0  0  0  0  0
    2.4792   -4.6125    0.0000 C   0  0  0  0  0  0  0  0  0  0  0  0
    3.2750   -5.6875    0.0000 S   0  0  0  0  0  0  0  0  0  0  0  0
    2.4875   -5.4375    0.0000 C   0  0  0  0  0  0  0  0  0  0  0  0
    1.7667   -4.1917    0.0000 C   0  0  0  0  0  0  0  0  0  0  0  0
    4.5792   -5.0125    0.0000 C   0  0  0  0  0  0  0  0  0  0  0  0
    1.7625   -3.3792    0.0000 S   0  0  0  0  0  0  0  0  0  0  0  0
    1.0542   -5.4417    0.0000 N   0  0  0  0  0  0  0  0  0  0  0  0
    4.9875   -4.2917    0.0000 O   0  0  0  0  0  0  0  0  0  0  0  0
    2.4750   -2.9625    0.0000 C   0  0  0  0  0  0  0  0  0  0  0  0
    5.0000   -5.7250    0.0000 N   0  0  0  0  0  0  0  0  0  0  0  0
    1.7667   -5.8542    0.0000 C   0  0  0  0  0  0  0  0  0  0  0  0
    1.0542   -4.6167    0.0000 C   0  0  0  0  0  0  0  0  0  0  0  0
    2.4667   -2.1417    0.0000 C   0  0  0  0  0  0  0  0  0  0  0  0
    3.1750   -1.7250    0.0000 C   0  0  0  0  0  0  0  0  0  0  0  0
    3.9000   -2.9625    0.0000 C   0  0  0  0  0  0  0  0  0  0  0  0
    3.1875   -3.3750    0.0000 C   0  0  0  0  0  0  0  0  0  0  0  0
    3.8917   -2.1292    0.0000 C   0  0  0  0  0  0  0  0  0  0  0  0
    3.1667   -0.9000    0.0000 C   0  0  0  0  0  0  0  0  0  0  0  0
  2  1  2  0
  3  2  1  0
  4  1  1  0
  5  4  1  0
  6  3  1  0
  7  1  1  0
  8  6  1  0
  9 13  2  0
 10  7  2  0
 11  8  1  0
 12  7  1  0
 13  5  1  0
 14  6  2  0
 15 11  1  0
 16 15  2  0
 17 18  1  0
 18 11  2  0
 19 17  2  0
 20 16  1  0
  3  5  2  0
 14  9  1  0
 16 19  1  0
M  END

> <chembl_id>
CHEMBL269497

> <chembl_pref_name>
None

$$$$

     RDKit          2D

 20 22  0  0  0  0  0  0  0  0999 V2000
    3.7542   -5.0167    0.0000 C   0  0  0  0  0  0  0  0  0  0  0  0
    3.2667   -4.3500    0.0000 C   0  0  0  0  0  0  0  0  0  0  0  0
    2.4792   -4.6125    0.0000 C   0  0  0  0  0  0  0  0  0  0  0  0
    3.2750   -5.6875    0.0000 S   0  0  0  0  0  0  0  0  0  0  0  0
    2.4875   -5.4375    0.0000 C   0  0  0  0  0  0  0  0  0  0  0  0
    1.7667   -4.1917    0.0000 C   0  0  0  0  0  0  0  0  0  0  0  0
    1.7625   -3.3792    0.0000 S   0  0  0  0  0  0  0  0  0  0  0  0
    4.5792   -5.0125    0.0000 C   0  0  0  0  0  0  0  0  0  0  0  0
    2.4750   -2.9625    0.0000 C   0  0  0  0  0  0  0  0  0  0  0  0
    1.0542   -5.4417    0.0000 N   0  0  0  0  0  0  0  0  0  0  0  0
    4.9875   -4.2917    0.0000 O   0  0  0  0  0  0  0  0  0  0  0  0
    2.4667   -2.1417    0.0000 C   0  0  0  0  0  0  0  0  0  0  0  0
    5.0000   -5.7250    0.0000 N   0  0  0  0  0  0  0  0  0  0  0  0
    1.7667   -5.8542    0.0000 C   0  0  0  0  0  0  0  0  0  0  0  0
    1.0542   -4.6167    0.0000 C   0  0  0  0  0  0  0  0  0  0  0  0
    3.1875   -3.3750    0.0000 C   0  0  0  0  0  0  0  0  0  0  0  0
    1.7417   -1.7375    0.0000 C   0  0  0  0  0  0  0  0  0  0  0  0
    3.1750   -1.7250    0.0000 C   0  0  0  0  0  0  0  0  0  0  0  0
    3.9000   -2.9625    0.0000 C   0  0  0  0  0  0  0  0  0  0  0  0
    3.8917   -2.1292    0.0000 C   0  0  0  0  0  0  0  0  0  0  0  0
  2  1  2  0
  3  2  1  0
  4  1  1  0
  5  4  1  0
  6  3  1  0
  7  6  1  0
  8  1  1  0
  9  7  1  0
 10 14  2  0
 11  8  2  0
 12  9  1  0
 13  8  1  0
 14  5  1  0
 15  6  2  0
 16  9  2  0
 17 12  1  0
 18 12  2  0
 19 16  1  0
 20 19  2  0
  3  5  2  0
 15 10  1  0
 18 20  1  0
M  END

> <chembl_id>
CHEMBL6278

> <chembl_pref_name>
None

$$$$

     RDKit          2D

 19 21  0  0  0  0  0  0  0  0999 V2000
    3.7542   -5.0167    0.0000 C   0  0  0  0  0  0  0  0  0  0  0  0
    3.2667   -4.3500    0.0000 C   0  0  0  0  0  0  0  0  0  0  0  0
    2.4792   -4.6125    0.0000 C   0  0  0  0  0  0  0  0  0  0  0  0
    3.2750   -5.6875    0.0000 S   0  0  0  0  0  0  0  0  0  0  0  0
    2.4875   -5.4375    0.0000 C   0  0  0  0  0  0  0  0  0  0  0  0
    1.7667   -4.1917    0.0000 C   0  0  0  0  0  0  0  0  0  0  0  0
    4.5792   -5.0125    0.0000 C   0  0  0  0  0  0  0  0  0  0  0  0
    1.7625   -3.3792    0.0000 S   0  0  0  0  0  0  0  0  0  0  0  0
    1.0542   -5.4417    0.0000 N   0  0  0  0  0  0  0  0  0  0  0  0
    4.9875   -4.2917    0.0000 O   0  0  0  0  0  0  0  0  0  0  0  0
    5.0000   -5.7250    0.0000 N   0  0  0  0  0  0  0  0  0  0  0  0
    1.7667   -5.8542    0.0000 C   0  0  0  0  0  0  0  0  0  0  0  0
    1.0542   -4.6167    0.0000 C   0  0  0  0  0  0  0  0  0  0  0  0
    2.4750   -2.9625    0.0000 C   0  0  0  0  0  0  0  0  0  0  0  0
    3.1875   -3.3750    0.0000 C   0  0  0  0  0  0  0  0  0  0  0  0
    2.4667   -2.1417    0.0000 C   0  0  0  0  0  0  0  0  0  0  0  0
    3.1750   -1.7250    0.0000 C   0  0  0  0  0  0  0  0  0  0  0  0
    3.9000   -2.9625    0.0000 C   0  0  0  0  0  0  0  0  0  0  0  0
    3.8917   -2.1292    0.0000 C   0  0  0  0  0  0  0  0  0  0  0  0
  2  1  2  0
  3  2  1  0
  4  1  1  0
  5  4  1  0
  6  3  1  0
  7  1  1  0
  8  6  1  0
  9 12  2  0
 10  7  2  0
 11  7  1  0
 12  5  1  0
 13  6  2  0
 14  8  1  0
 15 14  2  0
 16 14  1  0
 17 16  2  0
 18 15  1  0
 19 17  1  0
  3  5  2  0
 13  9  1  0
 18 19  2  0
M  END

> <chembl_id>
CHEMBL267456

> <chembl_pref_name>
None

$$$$

     RDKit          2D

 24 26  0  0  0  0  0  0  0  0999 V2000
    2.4792   -4.6125    0.0000 C   0  0  0  0  0  0  0  0  0  0  0  0
    3.2750   -5.6875    0.0000 S   0  0  0  0  0  0  0  0  0  0  0  0
    2.4875   -5.4375    0.0000 C   0  0  0  0  0  0  0  0  0  0  0  0
    3.7542   -5.0167    0.0000 C   0  0  0  0  0  0  0  0  0  0  0  0
    3.2667   -4.3500    0.0000 C   0  0  0  0  0  0  0  0  0  0  0  0
    1.7667   -4.1917    0.0000 C   0  0  0  0  0  0  0  0  0  0  0  0
    1.7625   -3.3792    0.0000 S   0  0  0  0  0  0  0  0  0  0  0  0
    7.0417   -3.5667    0.0000 C   0  0  0  0  0  0  0  0  0  0  0  0
    1.0542   -5.4417    0.0000 N   0  0  0  0  0  0  0  0  0  0  0  0
    4.5792   -5.0125    0.0000 C   0  0  0  0  0  0  0  0  0  0  0  0
    4.9875   -4.2917    0.0000 N   0  0  0  0  0  0  0  0  0  0  0  0
    6.2167   -3.5750    0.0000 C   0  0  0  0  0  0  0  0  0  0  0  0
    7.4625   -4.2792    0.0000 O   0  0  0  0  0  0  0  0  0  0  0  0
    1.1917   -2.7792    0.0000 C   0  0  0  0  0  0  0  0  0  0  0  0
    5.8125   -4.2917    0.0000 O   0  0  0  0  0  0  0  0  0  0  0  0
    1.7667   -5.8542    0.0000 C   0  0  0  0  0  0  0  0  0  0  0  0
    1.0542   -4.6167    0.0000 C   0  0  0  0  0  0  0  0  0  0  0  0
    7.4500   -2.8500    0.0000 O   0  0  0  0  0  0  0  0  0  0  0  0
    0.0667   -1.5792    0.0000 C   0  0  0  0  0  0  0  0  0  0  0  0
    1.4375   -1.9917    0.0000 C   0  0  0  0  0  0  0  0  0  0  0  0
    0.4000   -2.9667    0.0000 C   0  0  0  0  0  0  0  0  0  0  0  0
   -0.1708   -2.3750    0.0000 C   0  0  0  0  0  0  0  0  0  0  0  0
    0.8750   -1.3917    0.0000 C   0  0  0  0  0  0  0  0  0  0  0  0
   -0.4958   -0.9792    0.0000 C   0  0  0  0  0  0  0  0  0  0  0  0
  2  3  1  0
  3  1  2  0
  4  5  2  0
  5  1  1  0
  6  1  1  0
  7  6  1  0
  8 12  1  0
  9 17  1  0
 10  4  1  0
 11 10  2  0
 12 15  1  0
 13  8  2  0
 14  7  1  0
 15 11  1  0
 16  3  1  0
 17  6  2  0
 18  8  1  0
 19 22  1  0
 20 14  2  0
 21 14  1  0
 22 21  2  0
 23 20  1  0
 24 19  1  0
  2  4  1  0
 16  9  2  0
 23 19  2  0
M  END

> <chembl_id>
CHEMBL6316

> <chembl_pref_name>
None

$$$$

     RDKit          2D

 27 30  0  0  0  0  0  0  0  0999 V2000
    2.9792   -6.6167    0.0000 C   0  0  0  0  0  0  0  0  0  0  0  0
    3.7667   -7.6917    0.0000 S   0  0  0  0  0  0  0  0  0  0  0  0
    2.9792   -7.4417    0.0000 C   0  0  0  0  0  0  0  0  0  0  0  0
    4.2542   -7.0167    0.0000 C   0  0  0  0  0  0  0  0  0  0  0  0
    3.7625   -6.3542    0.0000 C   0  0  0  0  0  0  0  0  0  0  0  0
    2.2542   -6.2042    0.0000 C   0  0  0  0  0  0  0  0  0  0  0  0
    2.2542   -5.3792    0.0000 S   0  0  0  0  0  0  0  0  0  0  0  0
    1.5500   -7.4417    0.0000 N   0  0  0  0  0  0  0  0  0  0  0  0
    5.0792   -7.0167    0.0000 C   0  0  0  0  0  0  0  0  0  0  0  0
    5.4875   -6.3000    0.0000 N   0  0  0  0  0  0  0  0  0  0  0  0
    1.6917   -4.7792    0.0000 C   0  0  0  0  0  0  0  0  0  0  0  0
    2.2542   -7.8542    0.0000 C   0  0  0  0  0  0  0  0  0  0  0  0
    1.5500   -6.6167    0.0000 C   0  0  0  0  0  0  0  0  0  0  0  0
    6.3125   -6.2917    0.0000 O   0  0  0  0  0  0  0  0  0  0  0  0
    0.5667   -3.5792    0.0000 C   0  0  0  0  0  0  0  0  0  0  0  0
    1.9292   -3.9917    0.0000 C   0  0  0  0  0  0  0  0  0  0  0  0
    0.8917   -4.9750    0.0000 C   0  0  0  0  0  0  0  0  0  0  0  0
    0.3292   -4.3792    0.0000 C   0  0  0  0  0  0  0  0  0  0  0  0
    1.3667   -3.3917    0.0000 C   0  0  0  0  0  0  0  0  0  0  0  0
    7.5417   -5.5667    0.0000 C   0  0  0  0  0  0  0  0  0  0  0  0
    6.7167   -5.5792    0.0000 C   0  0  0  0  0  0  0  0  0  0  0  0
    0.0000   -2.9875    0.0000 C   0  0  0  0  0  0  0  0  0  0  0  0
    7.9542   -6.2792    0.0000 C   0  0  0  0  0  0  0  0  0  0  0  0
    7.9417   -4.8542    0.0000 C   0  0  0  0  0  0  0  0  0  0  0  0
    8.7667   -4.8417    0.0000 C   0  0  0  0  0  0  0  0  0  0  0  0
    8.7792   -6.2792    0.0000 C   0  0  0  0  0  0  0  0  0  0  0  0
    9.1917   -5.5625    0.0000 C   0  0  0  0  0  0  0  0  0  0  0  0
  2  3  1  0
  3  1  2  0
  4  5  2  0
  5  1  1  0
  6  1  1  0
  7  6  1  0
  8 13  1  0
  9  4  1  0
 10  9  2  0
 11  7  1  0
 12  3  1  0
 13  6  2  0
 14 10  1  0
 15 18  1  0
 16 11  2  0
 17 11  1  0
 18 17  2  0
 19 16  1  0
 20 21  1  0
 21 14  1  0
 22 15  1  0
 23 20  2  0
 24 20  1  0
 25 24  2  0
 26 23  1  0
 27 25  1  0
  2  4  1  0
 12  8  2  0
 19 15  2  0
 26 27  2  0
M  END

> <chembl_id>
CHEMBL6324

> <chembl_pref_name>
None

$$$$

     RDKit          2D

 26 29  0  0  0  0  0  0  0  0999 V2000
    2.9792   -6.6167    0.0000 C   0  0  0  0  0  0  0  0  0  0  0  0
    3.7667   -7.6917    0.0000 S   0  0  0  0  0  0  0  0  0  0  0  0
    2.9792   -7.4417    0.0000 C   0  0  0  0  0  0  0  0  0  0  0  0
    4.2542   -7.0167    0.0000 C   0  0  0  0  0  0  0  0  0  0  0  0
    3.7625   -6.3542    0.0000 C   0  0  0  0  0  0  0  0  0  0  0  0
    2.2542   -6.2042    0.0000 C   0  0  0  0  0  0  0  0  0  0  0  0
    2.2542   -5.3792    0.0000 S   0  0  0  0  0  0  0  0  0  0  0  0
    5.4875   -6.3000    0.0000 N   0  0  0  0  0  0  0  0  0  0  0  0
    5.0792   -7.0167    0.0000 C   0  0  0  0  0  0  0  0  0  0  0  0
    1.5500   -7.4417    0.0000 N   0  0  0  0  0  0  0  0  0  0  0  0
    1.6917   -4.7792    0.0000 C   0  0  0  0  0  0  0  0  0  0  0  0
    2.2542   -7.8542    0.0000 C   0  0  0  0  0  0  0  0  0  0  0  0
    1.5500   -6.6167    0.0000 C   0  0  0  0  0  0  0  0  0  0  0  0
    6.3125   -6.2917    0.0000 O   0  0  0  0  0  0  0  0  0  0  0  0
    0.5667   -3.5792    0.0000 C   0  0  0  0  0  0  0  0  0  0  0  0
    1.9292   -3.9917    0.0000 C   0  0  0  0  0  0  0  0  0  0  0  0
    0.8917   -4.9750    0.0000 C   0  0  0  0  0  0  0  0  0  0  0  0
    0.3292   -4.3792    0.0000 C   0  0  0  0  0  0  0  0  0  0  0  0
    1.3667   -3.3917    0.0000 C   0  0  0  0  0  0  0  0  0  0  0  0
    6.7167   -5.5792    0.0000 C   0  0  0  0  0  0  0  0  0  0  0  0
    0.0000   -2.9875    0.0000 C   0  0  0  0  0  0  0  0  0  0  0  0
    7.5417   -5.5750    0.0000 C   0  0  0  0  0  0  0  0  0  0  0  0
    6.3042   -4.8667    0.0000 C   0  0  0  0  0  0  0  0  0  0  0  0
    6.7042   -4.1542    0.0000 C   0  0  0  0  0  0  0  0  0  0  0  0
    7.9542   -4.8542    0.0000 C   0  0  0  0  0  0  0  0  0  0  0  0
    7.5375   -4.1417    0.0000 C   0  0  0  0  0  0  0  0  0  0  0  0
  2  3  1  0
  3  1  2  0
  4  5  2  0
  5  1  1  0
  6  1  1  0
  7  6  1  0
  8  9  2  0
  9  4  1  0
 10 13  1  0
 11  7  1  0
 12  3  1  0
 13  6  2  0
 14  8  1  0
 15 18  1  0
 16 11  2  0
 17 11  1  0
 18 17  2  0
 19 16  1  0
 20 14  1  0
 21 15  1  0
 22 20  2  0
 23 20  1  0
 24 23  2  0
 25 22  1  0
 26 24  1  0
  2  4  1  0
 12 10  2  0
 19 15  2  0
 25 26  2  0
M  END

> <chembl_id>
CHEMBL6249

> <chembl_pref_name>
None

$$$$

     RDKit          2D

 20 22  0  0  0  0  0  0  0  0999 V2000
    2.9792   -6.6167    0.0000 C   0  0  0  0  0  0  0  0  0  0  0  0
    3.7667   -7.6917    0.0000 S   0  0  0  0  0  0  0  0  0  0  0  0
    2.9792   -7.4417    0.0000 C   0  0  0  0  0  0  0  0  0  0  0  0
    4.2542   -7.0167    0.0000 C   0  0  0  0  0  0  0  0  0  0  0  0
    3.7625   -6.3542    0.0000 C   0  0  0  0  0  0  0  0  0  0  0  0
    2.2542   -6.2042    0.0000 C   0  0  0  0  0  0  0  0  0  0  0  0
    2.2542   -5.3792    0.0000 S   0  0  0  0  0  0  0  0  0  0  0  0
    1.5500   -7.4417    0.0000 N   0  0  0  0  0  0  0  0  0  0  0  0
    5.0792   -7.0167    0.0000 C   0  0  0  0  0  0  0  0  0  0  0  0
    5.4875   -6.3000    0.0000 N   0  0  0  0  0  0  0  0  0  0  0  0
    1.6917   -4.7792    0.0000 C   0  0  0  0  0  0  0  0  0  0  0  0
    2.2542   -7.8542    0.0000 C   0  0  0  0  0  0  0  0  0  0  0  0
    1.5500   -6.6167    0.0000 C   0  0  0  0  0  0  0  0  0  0  0  0
    6.3125   -6.2917    0.0000 O   0  0  0  0  0  0  0  0  0  0  0  0
    0.5667   -3.5792    0.0000 C   0  0  0  0  0  0  0  0  0  0  0  0
    1.9292   -3.9917    0.0000 C   0  0  0  0  0  0  0  0  0  0  0  0
    0.8917   -4.9750    0.0000 C   0  0  0  0  0  0  0  0  0  0  0  0
    0.3292   -4.3792    0.0000 C   0  0  0  0  0  0  0  0  0  0  0  0
    1.3667   -3.3917    0.0000 C   0  0  0  0  0  0  0  0  0  0  0  0
    0.0000   -2.9875    0.0000 C   0  0  0  0  0  0  0  0  0  0  0  0
  2  3  1  0
  3  1  2  0
  4  5  2  0
  5  1  1  0
  6  1  1  0
  7  6  1  0
  8 13  1  0
  9  4  1  0
 10  9  2  0
 11  7  1  0
 12  3  1  0
 13  6  2  0
 14 10  1  0
 15 18  1  0
 16 11  2  0
 17 11  1  0
 18 17  2  0
 19 16  1  0
 20 15  1  0
  2  4  1  0
 12  8  2  0
 19 15  2  0
M  END

> <chembl_id>
CHEMBL6258

> <chembl_pref_name>
None

$$$$

     RDKit          2D

 13 14  0  0  0  0  0  0  0  0999 V2000
    3.7542   -5.0167    0.0000 C   0  0  0  0  0  0  0  0  0  0  0  0
    3.2667   -4.3500    0.0000 C   0  0  0  0  0  0  0  0  0  0  0  0
    3.2750   -5.6875    0.0000 S   0  0  0  0  0  0  0  0  0  0  0  0
    2.4792   -4.6125    0.0000 C   0  0  0  0  0  0  0  0  0  0  0  0
    2.4875   -5.4375    0.0000 C   0  0  0  0  0  0  0  0  0  0  0  0
    4.5792   -5.0125    0.0000 C   0  0  0  0  0  0  0  0  0  0  0  0
    1.0542   -5.4417    0.0000 N   0  0  0  0  0  0  0  0  0  0  0  0
    1.7667   -4.1917    0.0000 C   0  0  0  0  0  0  0  0  0  0  0  0
    4.9875   -4.2917    0.0000 O   0  0  0  0  0  0  0  0  0  0  0  0
    5.0000   -5.7250    0.0000 N   0  0  0  0  0  0  0  0  0  0  0  0
    1.7667   -5.8542    0.0000 C   0  0  0  0  0  0  0  0  0  0  0  0
    1.7625   -3.3792    0.0000 Cl  0  0  0  0  0  0  0  0  0  0  0  0
    1.0542   -4.6167    0.0000 C   0  0  0  0  0  0  0  0  0  0  0  0
  2  1  2  0
  3  1  1  0
  4  2  1  0
  5  3  1  0
  6  1  1  0
  7 11  2  0
  8  4  1  0
  9  6  2  0
 10  6  1  0
 11  5  1  0
 12  8  1  0
 13  8  2  0
  4  5  2  0
 13  7  1  0
M  END

> <chembl_id>
CHEMBL6257

> <chembl_pref_name>
None

$$$$

     RDKit          2D

 21 23  0  0  0  0  0  0  0  0999 V2000
    3.7542   -5.0167    0.0000 C   0  0  0  0  0  0  0  0  0  0  0  0
    3.2667   -4.3500    0.0000 C   0  0  0  0  0  0  0  0  0  0  0  0
    2.4792   -4.6125    0.0000 C   0  0  0  0  0  0  0  0  0  0  0  0
    3.2750   -5.6875    0.0000 S   0  0  0  0  0  0  0  0  0  0  0  0
    2.4875   -5.4375    0.0000 C   0  0  0  0  0  0  0  0  0  0  0  0
    1.7667   -4.1917    0.0000 C   0  0  0  0  0  0  0  0  0  0  0  0
    4.5792   -5.0125    0.0000 C   0  0  0  0  0  0  0  0  0  0  0  0
    1.7625   -3.3792    0.0000 S   0  0  0  0  0  0  0  0  0  0  0  0
    1.0542   -5.4417    0.0000 N   0  0  0  0  0  0  0  0  0  0  0  0
    4.9875   -4.2917    0.0000 N   0  0  0  0  0  0  0  0  0  0  0  0
    1.1917   -2.7792    0.0000 C   0  0  0  0  0  0  0  0  0  0  0  0
    1.7667   -5.8542    0.0000 C   0  0  0  0  0  0  0  0  0  0  0  0
    1.0542   -4.6167    0.0000 C   0  0  0  0  0  0  0  0  0  0  0  0
    5.8125   -4.2917    0.0000 O   0  0  0  0  0  0  0  0  0  0  0  0
    0.0667   -1.5792    0.0000 C   0  0  0  0  0  0  0  0  0  0  0  0
    1.4375   -1.9917    0.0000 C   0  0  0  0  0  0  0  0  0  0  0  0
    0.4000   -2.9667    0.0000 C   0  0  0  0  0  0  0  0  0  0  0  0
   -0.1708   -2.3750    0.0000 C   0  0  0  0  0  0  0  0  0  0  0  0
    0.8750   -1.3917    0.0000 C   0  0  0  0  0  0  0  0  0  0  0  0
    5.0000   -5.7250    0.0000 C   0  0  0  0  0  0  0  0  0  0  0  0
   -0.4958   -0.9792    0.0000 C   0  0  0  0  0  0  0  0  0  0  0  0
  2  1  2  0
  3  2  1  0
  4  1  1  0
  5  4  1  0
  6  3  1  0
  7  1  1  0
  8  6  1  0
  9 12  2  0
 10  7  2  0
 11  8  1  0
 12  5  1  0
 13  6  2  0
 14 10  1  0
 15 18  1  0
 16 11  2  0
 17 11  1  0
 18 17  2  0
 19 16  1  0
 20  7  1  0
 21 15  1  0
  3  5  2  0
 13  9  1  0
 19 15  2  0
M  END

> <chembl_id>
CHEMBL262570

> <chembl_pref_name>
None

$$$$

     RDKit          2D

 24 26  0  0  0  0  0  0  0  0999 V2000
    2.4792   -4.6125    0.0000 C   0  0  0  0  0  0  0  0  0  0  0  0
    3.2750   -5.6875    0.0000 S   0  0  0  0  0  0  0  0  0  0  0  0
    2.4875   -5.4375    0.0000 C   0  0  0  0  0  0  0  0  0  0  0  0
    3.7542   -5.0167    0.0000 C   0  0  0  0  0  0  0  0  0  0  0  0
    3.2667   -4.3500    0.0000 C   0  0  0  0  0  0  0  0  0  0  0  0
    1.7667   -4.1917    0.0000 C   0  0  0  0  0  0  0  0  0  0  0  0
    1.7625   -3.3792    0.0000 S   0  0  0  0  0  0  0  0  0  0  0  0
    7.0417   -3.5667    0.0000 C   0  0  0  0  0  0  0  0  0  0  0  0
    1.0542   -5.4417    0.0000 N   0  0  0  0  0  0  0  0  0  0  0  0
    4.5792   -5.0125    0.0000 C   0  0  0  0  0  0  0  0  0  0  0  0
    4.9875   -4.2917    0.0000 N   0  0  0  0  0  0  0  0  0  0  0  0
    6.2167   -3.5750    0.0000 C   0  0  0  0  0  0  0  0  0  0  0  0
    7.4625   -4.2792    0.0000 O   0  0  0  0  0  0  0  0  0  0  0  0
    1.1917   -2.7792    0.0000 C   0  0  0  0  0  0  0  0  0  0  0  0
    5.8125   -4.2917    0.0000 O   0  0  0  0  0  0  0  0  0  0  0  0
    7.4500   -2.8500    0.0000 N   0  0  0  0  0  0  0  0  0  0  0  0
    1.7667   -5.8542    0.0000 C   0  0  0  0  0  0  0  0  0  0  0  0
    1.0542   -4.6167    0.0000 C   0  0  0  0  0  0  0  0  0  0  0  0
    0.0667   -1.5792    0.0000 C   0  0  0  0  0  0  0  0  0  0  0  0
    1.4375   -1.9917    0.0000 C   0  0  0  0  0  0  0  0  0  0  0  0
    0.4000   -2.9667    0.0000 C   0  0  0  0  0  0  0  0  0  0  0  0
   -0.1708   -2.3750    0.0000 C   0  0  0  0  0  0  0  0  0  0  0  0
    0.8750   -1.3917    0.0000 C   0  0  0  0  0  0  0  0  0  0  0  0
   -0.4958   -0.9792    0.0000 C   0  0  0  0  0  0  0  0  0  0  0  0
  2  3  1  0
  3  1  2  0
  4  5  2  0
  5  1  1  0
  6  1  1  0
  7  6  1  0
  8 12  1  0
  9 18  1  0
 10  4  1  0
 11 10  2  0
 12 15  1  0
 13  8  2  0
 14  7  1  0
 15 11  1  0
 16  8  1  0
 17  3  1  0
 18  6  2  0
 19 22  1  0
 20 14  2  0
 21 14  1  0
 22 21  2  0
 23 20  1  0
 24 19  1  0
  2  4  1  0
 17  9  2  0
 23 19  2  0
M  END

> <chembl_id>
CHEMBL6264

> <chembl_pref_name>
None

$$$$

     RDKit          2D

 39 42  0  0  1  0  0  0  0  0999 V2000
   -6.4542   -0.6625    0.0000 C   0  0  0  0  0  0  0  0  0  0  0  0
   -5.7458   -1.0750    0.0000 C   0  0  0  0  0  0  0  0  0  0  0  0
   -7.1667   -1.0667    0.0000 N   0  0  0  0  0  0  0  0  0  0  0  0
    2.8042    3.0833    0.0000 N   0  0  0  0  0  0  0  0  0  0  0  0
   -6.4625   -2.3042    0.0000 N   0  0  0  0  0  0  0  0  0  0  0  0
    0.6667    0.1958    0.0000 N   0  0  0  0  0  0  0  0  0  0  0  0
   -5.7500   -1.8917    0.0000 C   0  0  0  0  0  0  0  0  0  0  0  0
   -7.1667   -1.8875    0.0000 C   0  0  0  0  0  0  0  0  0  0  0  0
   -0.0458    0.6000    0.0000 C   0  0  0  0  0  0  0  0  0  0  0  0
    1.3792    0.6083    0.0000 C   0  0  0  0  0  0  0  0  0  0  0  0
    2.0917    2.6708    0.0000 C   0  0  0  0  0  0  0  0  0  0  0  0
    2.1000    0.1958    0.0000 C   0  0  0  0  0  0  0  0  0  0  0  0
    1.3792    1.4333    0.0000 C   0  0  0  0  0  0  0  0  0  0  0  0
   -2.8958   -1.0542    0.0000 N   0  0  0  0  0  0  0  0  0  0  0  0
    2.0917    1.8458    0.0000 C   0  0  0  0  0  0  0  0  0  0  0  0
   -2.1958   -2.3250    0.0000 C   0  0  0  0  0  0  0  0  0  0  0  0
   -1.4958   -2.7667    0.0000 C   0  0  0  0  0  0  0  0  0  0  0  0
   -5.0375   -0.6542    0.0000 C   0  0  0  0  0  0  0  0  0  0  0  0
    3.5250    2.6833    0.0000 O   0  0  0  0  0  0  0  0  0  0  0  0
   -0.7583    0.1833    0.0000 C   0  0  0  0  0  0  0  0  0  0  0  0
    2.8042    3.9208    0.0000 O   0  0  0  0  0  0  0  0  0  0  0  0
   -2.1833   -0.6417    0.0000 C   0  0  0  0  0  0  0  0  0  0  0  0
   -6.4417    0.1625    0.0000 O   0  0  0  0  0  0  0  0  0  0  0  0
   -3.6083   -0.6500    0.0000 C   0  0  0  0  0  0  0  0  0  0  0  0
   -0.0458    1.4250    0.0000 O   0  0  0  0  0  0  0  0  0  0  0  0
   -4.3208   -1.0667    0.0000 C   0  0  0  0  0  0  0  0  0  0  0  0
    2.1042   -0.6292    0.0000 O   0  0  0  0  0  0  0  0  0  0  0  0
   -5.0375   -2.3042    0.0000 C   0  0  0  0  0  0  0  0  0  0  0  0
   -0.7583   -0.6417    0.0000 C   0  0  0  0  0  0  0  0  0  0  0  0
   -1.4750    0.5958    0.0000 C   0  0  0  0  0  0  0  0  0  0  0  0
   -1.4708   -1.0542    0.0000 C   0  0  0  0  0  0  0  0  0  0  0  0
   -2.1875    0.1750    0.0000 C   0  0  0  0  0  0  0  0  0  0  0  0
   -2.8958   -1.8792    0.0000 C   0  0  0  0  0  0  0  0  0  0  0  0
    2.8125    0.6125    0.0000 O   0  0  0  0  0  0  0  0  0  0  0  0
   -4.3208   -1.8917    0.0000 C   0  0  0  0  0  0  0  0  0  0  0  0
   -7.8875   -2.2917    0.0000 C   0  0  0  0  0  0  0  0  0  0  0  0
    0.6667    1.8375    0.0000 C   0  0  0  0  0  0  0  0  0  0  0  0
    1.3750    3.0833    0.0000 C   0  0  0  0  0  0  0  0  0  0  0  0
    0.6542    2.6583    0.0000 C   0  0  0  0  0  0  0  0  0  0  0  0
  2  1  1  0
  3  1  2  0
  4 11  1  0
  5  8  2  0
  6  9  1  0
  7  2  2  0
  8  3  1  0
  9 20  1  0
 10  6  1  0
 11 15  1  0
 12 10  1  0
 10 13  1  6
 14 24  1  0
 15 13  2  0
 16 33  1  0
 17 16  3  0
 18  2  1  0
 19  4  1  0
 20 30  1  0
 21  4  2  0
 22 14  1  0
 23  1  1  0
 24 26  1  0
 25  9  2  0
 26 18  2  0
 27 12  2  0
 28  7  1  0
 29 31  1  0
 30 32  2  0
 31 22  2  0
 32 22  1  0
 33 14  1  0
 34 12  1  0
 35 26  1  0
 36  8  1  0
 37 13  1  0
 38 39  1  0
 39 37  2  0
  5  7  1  0
 35 28  2  0
 20 29  2  0
 38 11  2  0
M  CHG  2   4   1  19  -1
M  END

> <chembl_id>
CHEMBL6636

> <chembl_pref_name>
None

$$$$

     RDKit          2D

 21 23  0  0  0  0  0  0  0  0999 V2000
    3.5875   -7.6000    0.0000 C   0  0  0  0  0  0  0  0  0  0  0  0
    3.0917   -6.9292    0.0000 C   0  0  0  0  0  0  0  0  0  0  0  0
    2.3125   -7.1917    0.0000 C   0  0  0  0  0  0  0  0  0  0  0  0
    3.1042   -8.2667    0.0000 S   0  0  0  0  0  0  0  0  0  0  0  0
    4.4125   -7.5917    0.0000 C   0  0  0  0  0  0  0  0  0  0  0  0
    2.3167   -8.0167    0.0000 C   0  0  0  0  0  0  0  0  0  0  0  0
    1.5917   -6.7792    0.0000 C   0  0  0  0  0  0  0  0  0  0  0  0
    1.5917   -5.9625    0.0000 S   0  0  0  0  0  0  0  0  0  0  0  0
    0.8792   -8.0250    0.0000 N   0  0  0  0  0  0  0  0  0  0  0  0
    4.8292   -8.3042    0.0000 O   0  0  0  0  0  0  0  0  0  0  0  0
    4.8167   -6.8792    0.0000 N   0  0  0  0  0  0  0  0  0  0  0  0
    1.0250   -5.3625    0.0000 C   0  0  0  0  0  0  0  0  0  0  0  0
    1.5917   -8.4375    0.0000 C   0  0  0  0  0  0  0  0  0  0  0  0
    0.8792   -7.2000    0.0000 C   0  0  0  0  0  0  0  0  0  0  0  0
    5.6417   -6.8750    0.0000 N   0  0  0  0  0  0  0  0  0  0  0  0
   -0.1000   -4.1625    0.0000 C   0  0  0  0  0  0  0  0  0  0  0  0
    0.2292   -5.5542    0.0000 C   0  0  0  0  0  0  0  0  0  0  0  0
    1.2667   -4.5750    0.0000 C   0  0  0  0  0  0  0  0  0  0  0  0
    0.7042   -3.9750    0.0000 C   0  0  0  0  0  0  0  0  0  0  0  0
   -0.3375   -4.9542    0.0000 C   0  0  0  0  0  0  0  0  0  0  0  0
   -0.6708   -3.5667    0.0000 C   0  0  0  0  0  0  0  0  0  0  0  0
  2  1  2  0
  3  2  1  0
  4  1  1  0
  5  1  1  0
  6  4  1  0
  7  3  1  0
  8  7  1  0
  9 13  2  0
 10  5  2  0
 11  5  1  0
 12  8  1  0
 13  6  1  0
 14  7  2  0
 15 11  1  0
 16 19  2  0
 17 12  1  0
 18 12  2  0
 19 18  1  0
 20 17  2  0
 21 16  1  0
  3  6  2  0
 14  9  1  0
 16 20  1  0
M  END

> <chembl_id>
CHEMBL269598

> <chembl_pref_name>
None

$$$$

     RDKit          2D

 21 23  0  0  0  0  0  0  0  0999 V2000
    3.5875   -7.6000    0.0000 C   0  0  0  0  0  0  0  0  0  0  0  0
    3.0917   -6.9292    0.0000 C   0  0  0  0  0  0  0  0  0  0  0  0
    2.3125   -7.1917    0.0000 C   0  0  0  0  0  0  0  0  0  0  0  0
    3.1042   -8.2667    0.0000 S   0  0  0  0  0  0  0  0  0  0  0  0
    2.3167   -8.0167    0.0000 C   0  0  0  0  0  0  0  0  0  0  0  0
    1.5917   -6.7792    0.0000 C   0  0  0  0  0  0  0  0  0  0  0  0
    4.4125   -7.5917    0.0000 C   0  0  0  0  0  0  0  0  0  0  0  0
    1.5917   -5.9625    0.0000 S   0  0  0  0  0  0  0  0  0  0  0  0
    0.8792   -8.0250    0.0000 N   0  0  0  0  0  0  0  0  0  0  0  0
    4.8292   -8.3042    0.0000 O   0  0  0  0  0  0  0  0  0  0  0  0
    1.0250   -5.3625    0.0000 C   0  0  0  0  0  0  0  0  0  0  0  0
    1.5917   -8.4375    0.0000 C   0  0  0  0  0  0  0  0  0  0  0  0
    0.8792   -7.2000    0.0000 C   0  0  0  0  0  0  0  0  0  0  0  0
    4.8167   -6.8792    0.0000 O   0  0  0  0  0  0  0  0  0  0  0  0
   -0.1000   -4.1625    0.0000 C   0  0  0  0  0  0  0  0  0  0  0  0
    1.2667   -4.5750    0.0000 C   0  0  0  0  0  0  0  0  0  0  0  0
    0.2292   -5.5542    0.0000 C   0  0  0  0  0  0  0  0  0  0  0  0
   -0.3375   -4.9542    0.0000 C   0  0  0  0  0  0  0  0  0  0  0  0
    0.7042   -3.9750    0.0000 C   0  0  0  0  0  0  0  0  0  0  0  0
   -0.6708   -3.5667    0.0000 C   0  0  0  0  0  0  0  0  0  0  0  0
    5.6417   -6.8750    0.0000 C   0  0  0  0  0  0  0  0  0  0  0  0
  2  1  2  0
  3  2  1  0
  4  1  1  0
  5  4  1  0
  6  3  1  0
  7  1  1  0
  8  6  1  0
  9 12  2  0
 10  7  2  0
 11  8  1  0
 12  5  1  0
 13  6  2  0
 14  7  1  0
 15 18  1  0
 16 11  2  0
 17 11  1  0
 18 17  2  0
 19 16  1  0
 20 15  1  0
 21 14  1  0
  3  5  2  0
 13  9  1  0
 19 15  2  0
M  END

> <chembl_id>
CHEMBL6369

> <chembl_pref_name>
None

$$$$

     RDKit          2D

 20 22  0  0  0  0  0  0  0  0999 V2000
    3.5875   -7.6000    0.0000 C   0  0  0  0  0  0  0  0  0  0  0  0
    3.0917   -6.9292    0.0000 C   0  0  0  0  0  0  0  0  0  0  0  0
    2.3125   -7.1917    0.0000 C   0  0  0  0  0  0  0  0  0  0  0  0
    3.1042   -8.2667    0.0000 S   0  0  0  0  0  0  0  0  0  0  0  0
    2.3167   -8.0167    0.0000 C   0  0  0  0  0  0  0  0  0  0  0  0
    1.5917   -6.7792    0.0000 C   0  0  0  0  0  0  0  0  0  0  0  0
    4.4125   -7.5917    0.0000 C   0  0  0  0  0  0  0  0  0  0  0  0
    1.5917   -5.9625    0.0000 S   0  0  0  0  0  0  0  0  0  0  0  0
    0.8792   -8.0250    0.0000 N   0  0  0  0  0  0  0  0  0  0  0  0
    4.8292   -8.3042    0.0000 O   0  0  0  0  0  0  0  0  0  0  0  0
    1.0250   -5.3625    0.0000 C   0  0  0  0  0  0  0  0  0  0  0  0
    1.5917   -8.4375    0.0000 C   0  0  0  0  0  0  0  0  0  0  0  0
    0.8792   -7.2000    0.0000 C   0  0  0  0  0  0  0  0  0  0  0  0
    4.8167   -6.8792    0.0000 O   0  0  0  0  0  0  0  0  0  0  0  0
   -0.1000   -4.1625    0.0000 C   0  0  0  0  0  0  0  0  0  0  0  0
    1.2667   -4.5750    0.0000 C   0  0  0  0  0  0  0  0  0  0  0  0
    0.2292   -5.5542    0.0000 C   0  0  0  0  0  0  0  0  0  0  0  0
   -0.3375   -4.9542    0.0000 C   0  0  0  0  0  0  0  0  0  0  0  0
    0.7042   -3.9750    0.0000 C   0  0  0  0  0  0  0  0  0  0  0  0
   -0.6708   -3.5667    0.0000 C   0  0  0  0  0  0  0  0  0  0  0  0
  2  1  2  0
  3  2  1  0
  4  1  1  0
  5  4  1  0
  6  3  1  0
  7  1  1  0
  8  6  1  0
  9 12  2  0
 10  7  2  0
 11  8  1  0
 12  5  1  0
 13  6  2  0
 14  7  1  0
 15 18  1  0
 16 11  2  0
 17 11  1  0
 18 17  2  0
 19 16  1  0
 20 15  1  0
  3  5  2  0
 13  9  1  0
 19 15  2  0
M  END

> <chembl_id>
CHEMBL6370

> <chembl_pref_name>
None

$$$$

     RDKit          2D

 25 28  0  0  0  0  0  0  0  0999 V2000
    3.5875   -7.6000    0.0000 C   0  0  0  0  0  0  0  0  0  0  0  0
    3.0917   -6.9292    0.0000 C   0  0  0  0  0  0  0  0  0  0  0  0
    3.1042   -8.2667    0.0000 S   0  0  0  0  0  0  0  0  0  0  0  0
    2.3125   -7.1917    0.0000 C   0  0  0  0  0  0  0  0  0  0  0  0
    2.3167   -8.0167    0.0000 C   0  0  0  0  0  0  0  0  0  0  0  0
    4.4125   -7.5917    0.0000 C   0  0  0  0  0  0  0  0  0  0  0  0
    1.5917   -6.7792    0.0000 C   0  0  0  0  0  0  0  0  0  0  0  0
    1.5917   -5.9625    0.0000 S   0  0  0  0  0  0  0  0  0  0  0  0
    0.8792   -8.0250    0.0000 N   0  0  0  0  0  0  0  0  0  0  0  0
    4.8292   -8.3042    0.0000 O   0  0  0  0  0  0  0  0  0  0  0  0
    4.8167   -6.8792    0.0000 C   0  0  0  0  0  0  0  0  0  0  0  0
    1.0250   -5.3625    0.0000 C   0  0  0  0  0  0  0  0  0  0  0  0
    1.5917   -8.4375    0.0000 C   0  0  0  0  0  0  0  0  0  0  0  0
    0.8792   -7.2000    0.0000 C   0  0  0  0  0  0  0  0  0  0  0  0
   -0.1000   -4.1625    0.0000 C   0  0  0  0  0  0  0  0  0  0  0  0
    1.2667   -4.5750    0.0000 C   0  0  0  0  0  0  0  0  0  0  0  0
    0.2292   -5.5542    0.0000 C   0  0  0  0  0  0  0  0  0  0  0  0
   -0.3375   -4.9542    0.0000 C   0  0  0  0  0  0  0  0  0  0  0  0
    0.7042   -3.9750    0.0000 C   0  0  0  0  0  0  0  0  0  0  0  0
    5.6417   -6.8750    0.0000 C   0  0  0  0  0  0  0  0  0  0  0  0
    4.4000   -6.1667    0.0000 C   0  0  0  0  0  0  0  0  0  0  0  0
   -0.6708   -3.5667    0.0000 C   0  0  0  0  0  0  0  0  0  0  0  0
    4.8042   -5.4542    0.0000 C   0  0  0  0  0  0  0  0  0  0  0  0
    6.0500   -6.1542    0.0000 C   0  0  0  0  0  0  0  0  0  0  0  0
    5.6292   -5.4417    0.0000 C   0  0  0  0  0  0  0  0  0  0  0  0
  2  1  2  0
  3  1  1  0
  4  2  1  0
  5  3  1  0
  6  1  1  0
  7  4  1  0
  8  7  1  0
  9 13  2  0
 10  6  2  0
 11  6  1  0
 12  8  1  0
 13  5  1  0
 14  7  2  0
 15 18  1  0
 16 12  2  0
 17 12  1  0
 18 17  2  0
 19 16  1  0
 20 11  2  0
 21 11  1  0
 22 15  1  0
 23 21  2  0
 24 20  1  0
 25 23  1  0
  4  5  2  0
 14  9  1  0
 24 25  2  0
 19 15  2  0
M  END

> <chembl_id>
CHEMBL6371

> <chembl_pref_name>
None

$$$$

     RDKit          2D

 20 22  0  0  0  0  0  0  0  0999 V2000
    3.5875   -7.6000    0.0000 C   0  0  0  0  0  0  0  0  0  0  0  0
    3.0917   -6.9292    0.0000 C   0  0  0  0  0  0  0  0  0  0  0  0
    2.3125   -7.1917    0.0000 C   0  0  0  0  0  0  0  0  0  0  0  0
    3.1042   -8.2667    0.0000 S   0  0  0  0  0  0  0  0  0  0  0  0
    2.3167   -8.0167    0.0000 C   0  0  0  0  0  0  0  0  0  0  0  0
    1.5917   -6.7792    0.0000 C   0  0  0  0  0  0  0  0  0  0  0  0
    1.5917   -5.9625    0.0000 S   0  0  0  0  0  0  0  0  0  0  0  0
    4.4125   -7.5917    0.0000 C   0  0  0  0  0  0  0  0  0  0  0  0
    0.8792   -8.0250    0.0000 N   0  0  0  0  0  0  0  0  0  0  0  0
    4.8292   -8.3042    0.0000 O   0  0  0  0  0  0  0  0  0  0  0  0
    1.0250   -5.3625    0.0000 C   0  0  0  0  0  0  0  0  0  0  0  0
    1.5917   -8.4375    0.0000 C   0  0  0  0  0  0  0  0  0  0  0  0
    0.8792   -7.2000    0.0000 C   0  0  0  0  0  0  0  0  0  0  0  0
   -0.1000   -4.1625    0.0000 C   0  0  0  0  0  0  0  0  0  0  0  0
    0.2292   -5.5542    0.0000 C   0  0  0  0  0  0  0  0  0  0  0  0
    1.2667   -4.5750    0.0000 C   0  0  0  0  0  0  0  0  0  0  0  0
    0.7042   -3.9750    0.0000 C   0  0  0  0  0  0  0  0  0  0  0  0
   -0.3375   -4.9542    0.0000 C   0  0  0  0  0  0  0  0  0  0  0  0
    4.8167   -6.8792    0.0000 C   0  0  0  0  0  0  0  0  0  0  0  0
   -0.6708   -3.5667    0.0000 C   0  0  0  0  0  0  0  0  0  0  0  0
  2  1  2  0
  3  2  1  0
  4  1  1  0
  5  4  1  0
  6  3  1  0
  7  6  1  0
  8  1  1  0
  9 12  2  0
 10  8  2  0
 11  7  1  0
 12  5  1  0
 13  6  2  0
 14 17  2  0
 15 11  1  0
 16 11  2  0
 17 16  1  0
 18 15  2  0
 19  8  1  0
 20 14  1  0
  3  5  2  0
 13  9  1  0
 14 18  1  0
M  END

> <chembl_id>
CHEMBL266708

> <chembl_pref_name>
None

$$$$

     RDKit          2D

 19 21  0  0  0  0  0  0  0  0999 V2000
    2.3125   -7.1917    0.0000 C   0  0  0  0  0  0  0  0  0  0  0  0
    3.1042   -8.2667    0.0000 S   0  0  0  0  0  0  0  0  0  0  0  0
    2.3167   -8.0167    0.0000 C   0  0  0  0  0  0  0  0  0  0  0  0
    3.0917   -6.9292    0.0000 C   0  0  0  0  0  0  0  0  0  0  0  0
    3.5875   -7.6000    0.0000 C   0  0  0  0  0  0  0  0  0  0  0  0
    1.5917   -6.7792    0.0000 C   0  0  0  0  0  0  0  0  0  0  0  0
    1.5917   -5.9625    0.0000 S   0  0  0  0  0  0  0  0  0  0  0  0
    0.8792   -8.0250    0.0000 N   0  0  0  0  0  0  0  0  0  0  0  0
    4.4125   -7.5917    0.0000 C   0  0  0  0  0  0  0  0  0  0  0  0
    4.8292   -8.3042    0.0000 O   0  0  0  0  0  0  0  0  0  0  0  0
    1.0250   -5.3625    0.0000 C   0  0  0  0  0  0  0  0  0  0  0  0
    1.5917   -8.4375    0.0000 C   0  0  0  0  0  0  0  0  0  0  0  0
    0.8792   -7.2000    0.0000 C   0  0  0  0  0  0  0  0  0  0  0  0
   -0.1000   -4.1625    0.0000 C   0  0  0  0  0  0  0  0  0  0  0  0
    0.2292   -5.5542    0.0000 C   0  0  0  0  0  0  0  0  0  0  0  0
    1.2667   -4.5750    0.0000 C   0  0  0  0  0  0  0  0  0  0  0  0
    0.7042   -3.9750    0.0000 C   0  0  0  0  0  0  0  0  0  0  0  0
   -0.3375   -4.9542    0.0000 C   0  0  0  0  0  0  0  0  0  0  0  0
   -0.6708   -3.5667    0.0000 C   0  0  0  0  0  0  0  0  0  0  0  0
  2  3  1  0
  3  1  2  0
  4  1  1  0
  5  4  2  0
  6  1  1  0
  7  6  1  0
  8 13  1  0
  9  5  1  0
 10  9  2  0
 11  7  1  0
 12  3  1  0
 13  6  2  0
 14 17  2  0
 15 11  1  0
 16 11  2  0
 17 16  1  0
 18 15  2  0
 19 14  1  0
  2  5  1  0
  8 12  2  0
 14 18  1  0
M  END

> <chembl_id>
CHEMBL6381

> <chembl_pref_name>
None

$$$$

     RDKit          2D

 23 25  0  0  0  0  0  0  0  0999 V2000
    4.9042   -3.3042    0.0000 C   0  0  0  0  0  0  0  0  0  0  0  0
    4.4125   -2.6417    0.0000 C   0  0  0  0  0  0  0  0  0  0  0  0
    3.6292   -2.9042    0.0000 C   0  0  0  0  0  0  0  0  0  0  0  0
    4.4167   -3.9792    0.0000 S   0  0  0  0  0  0  0  0  0  0  0  0
    6.1375   -2.5875    0.0000 N   0  0  0  0  0  0  0  0  0  0  0  0
    5.7292   -3.3042    0.0000 C   0  0  0  0  0  0  0  0  0  0  0  0
    3.6292   -3.7292    0.0000 C   0  0  0  0  0  0  0  0  0  0  0  0
    6.9625   -2.5792    0.0000 C   0  0  0  0  0  0  0  0  0  0  0  0
    2.9125   -2.4917    0.0000 C   0  0  0  0  0  0  0  0  0  0  0  0
    2.9042   -1.6667    0.0000 S   0  0  0  0  0  0  0  0  0  0  0  0
    7.3792   -3.2917    0.0000 N   0  0  0  0  0  0  0  0  0  0  0  0
    2.1917   -3.7292    0.0000 N   0  0  0  0  0  0  0  0  0  0  0  0
    6.1417   -4.0167    0.0000 O   0  0  0  0  0  0  0  0  0  0  0  0
    7.3667   -1.8667    0.0000 N   0  0  0  0  0  0  0  0  0  0  0  0
    2.3417   -1.0667    0.0000 C   0  0  0  0  0  0  0  0  0  0  0  0
    2.9125   -4.1417    0.0000 C   0  0  0  0  0  0  0  0  0  0  0  0
    2.1917   -2.9042    0.0000 C   0  0  0  0  0  0  0  0  0  0  0  0
    1.2167    0.1333    0.0000 C   0  0  0  0  0  0  0  0  0  0  0  0
    1.5417   -1.2625    0.0000 C   0  0  0  0  0  0  0  0  0  0  0  0
    2.5792   -0.2792    0.0000 C   0  0  0  0  0  0  0  0  0  0  0  0
    2.0167    0.3208    0.0000 C   0  0  0  0  0  0  0  0  0  0  0  0
    0.9792   -0.6667    0.0000 C   0  0  0  0  0  0  0  0  0  0  0  0
    0.6500    0.7250    0.0000 C   0  0  0  0  0  0  0  0  0  0  0  0
  2  1  2  0
  3  2  1  0
  4  1  1  0
  5  6  1  0
  6  1  1  0
  7  4  1  0
  8  5  2  0
  9  3  1  0
 10  9  1  0
 11  8  1  0
 12 16  2  0
 13  6  2  0
 14  8  1  0
 15 10  1  0
 16  7  1  0
 17  9  2  0
 18 21  2  0
 19 15  1  0
 20 15  2  0
 21 20  1  0
 22 19  2  0
 23 18  1  0
  3  7  2  0
 17 12  1  0
 22 18  1  0
M  END

> <chembl_id>
CHEMBL266460

> <chembl_pref_name>
None

$$$$

     RDKit          2D

 29 32  0  0  0  0  0  0  0  0999 V2000
    4.2542   -7.0167    0.0000 C   0  0  0  0  0  0  0  0  0  0  0  0
    3.7625   -6.3542    0.0000 C   0  0  0  0  0  0  0  0  0  0  0  0
    2.9792   -6.6167    0.0000 C   0  0  0  0  0  0  0  0  0  0  0  0
    3.7667   -7.6917    0.0000 S   0  0  0  0  0  0  0  0  0  0  0  0
    2.9792   -7.4417    0.0000 C   0  0  0  0  0  0  0  0  0  0  0  0
    5.0792   -7.0167    0.0000 C   0  0  0  0  0  0  0  0  0  0  0  0
    2.2542   -6.2042    0.0000 C   0  0  0  0  0  0  0  0  0  0  0  0
    2.2542   -5.3792    0.0000 S   0  0  0  0  0  0  0  0  0  0  0  0
    7.9500   -4.8542    0.0000 N   0  0  0  0  0  0  0  0  0  0  0  0
    1.5500   -7.4417    0.0000 N   0  0  0  0  0  0  0  0  0  0  0  0
    5.4917   -7.7292    0.0000 O   0  0  0  0  0  0  0  0  0  0  0  0
    8.7667   -3.4292    0.0000 O   0  0  0  0  0  0  0  0  0  0  0  0
    5.4875   -6.3000    0.0000 N   0  0  0  0  0  0  0  0  0  0  0  0
    1.6917   -4.7792    0.0000 C   0  0  0  0  0  0  0  0  0  0  0  0
    2.2542   -7.8542    0.0000 C   0  0  0  0  0  0  0  0  0  0  0  0
    1.5500   -6.6167    0.0000 C   0  0  0  0  0  0  0  0  0  0  0  0
    0.5667   -3.5792    0.0000 C   0  0  0  0  0  0  0  0  0  0  0  0
    1.9292   -3.9917    0.0000 C   0  0  0  0  0  0  0  0  0  0  0  0
    0.8917   -4.9750    0.0000 C   0  0  0  0  0  0  0  0  0  0  0  0
    0.3292   -4.3792    0.0000 C   0  0  0  0  0  0  0  0  0  0  0  0
    1.3667   -3.3917    0.0000 C   0  0  0  0  0  0  0  0  0  0  0  0
    7.5417   -5.5667    0.0000 C   0  0  0  0  0  0  0  0  0  0  0  0
    6.7167   -5.5792    0.0000 C   0  0  0  0  0  0  0  0  0  0  0  0
    8.7750   -4.8542    0.0000 C   0  0  0  0  0  0  0  0  0  0  0  0
    7.5292   -4.1500    0.0000 C   0  0  0  0  0  0  0  0  0  0  0  0
    6.3125   -6.2917    0.0000 C   0  0  0  0  0  0  0  0  0  0  0  0
    7.9417   -3.4292    0.0000 C   0  0  0  0  0  0  0  0  0  0  0  0
    9.1792   -4.1417    0.0000 C   0  0  0  0  0  0  0  0  0  0  0  0
    0.0000   -2.9875    0.0000 C   0  0  0  0  0  0  0  0  0  0  0  0
  2  1  2  0
  3  2  1  0
  4  1  1  0
  5  4  1  0
  6  1  1  0
  7  3  1  0
  8  7  1  0
  9 22  1  0
 10 15  2  0
 11  6  2  0
 12 27  1  0
 13  6  1  0
 14  8  1  0
 15  5  1  0
 16  7  2  0
 17 20  1  0
 18 14  2  0
 19 14  1  0
 20 19  2  0
 21 18  1  0
 22 23  1  0
 23 26  1  0
 24  9  1  0
 25  9  1  0
 26 13  1  0
 27 25  1  0
 28 24  1  0
 29 17  1  0
  3  5  2  0
 16 10  1  0
 21 17  2  0
 28 12  1  0
M  END

> <chembl_id>
CHEMBL6762

> <chembl_pref_name>
None

$$$$

     RDKit          2D

 19 21  0  0  0  0  0  0  0  0999 V2000
    2.3125   -7.1917    0.0000 C   0  0  0  0  0  0  0  0  0  0  0  0
    3.1042   -8.2667    0.0000 S   0  0  0  0  0  0  0  0  0  0  0  0
    2.3167   -8.0167    0.0000 C   0  0  0  0  0  0  0  0  0  0  0  0
    3.0917   -6.9292    0.0000 C   0  0  0  0  0  0  0  0  0  0  0  0
    1.5917   -6.7792    0.0000 C   0  0  0  0  0  0  0  0  0  0  0  0
    3.5875   -7.6000    0.0000 C   0  0  0  0  0  0  0  0  0  0  0  0
    1.5917   -5.9625    0.0000 S   0  0  0  0  0  0  0  0  0  0  0  0
    0.8792   -8.0250    0.0000 N   0  0  0  0  0  0  0  0  0  0  0  0
    1.0250   -5.3625    0.0000 C   0  0  0  0  0  0  0  0  0  0  0  0
    1.5917   -8.4375    0.0000 C   0  0  0  0  0  0  0  0  0  0  0  0
    0.8792   -7.2000    0.0000 C   0  0  0  0  0  0  0  0  0  0  0  0
   -0.1000   -4.1625    0.0000 C   0  0  0  0  0  0  0  0  0  0  0  0
    0.2292   -5.5542    0.0000 C   0  0  0  0  0  0  0  0  0  0  0  0
    1.2667   -4.5750    0.0000 C   0  0  0  0  0  0  0  0  0  0  0  0
    0.7042   -3.9750    0.0000 C   0  0  0  0  0  0  0  0  0  0  0  0
   -0.3375   -4.9542    0.0000 C   0  0  0  0  0  0  0  0  0  0  0  0
    4.4125   -7.5917    0.0000 C   0  0  0  0  0  0  0  0  0  0  0  0
   -0.6708   -3.5667    0.0000 C   0  0  0  0  0  0  0  0  0  0  0  0
    4.8292   -8.3042    0.0000 C   0  0  0  0  0  0  0  0  0  0  0  0
  2  3  1  0
  3  1  2  0
  4  1  1  0
  5  1  1  0
  6  4  2  0
  7  5  1  0
  8 11  1  0
  9  7  1  0
 10  3  1  0
 11  5  2  0
 12 15  2  0
 13  9  1  0
 14  9  2  0
 15 14  1  0
 16 13  2  0
 17  6  1  0
 18 12  1  0
 19 17  1  0
  2  6  1  0
 10  8  2  0
 12 16  1  0
M  END

> <chembl_id>
CHEMBL266197

> <chembl_pref_name>
None

$$$$

     RDKit          2D

 22 24  0  0  0  0  0  0  0  0999 V2000
    3.5875   -7.6000    0.0000 C   0  0  0  0  0  0  0  0  0  0  0  0
    3.0917   -6.9292    0.0000 C   0  0  0  0  0  0  0  0  0  0  0  0
    2.3125   -7.1917    0.0000 C   0  0  0  0  0  0  0  0  0  0  0  0
    3.1042   -8.2667    0.0000 S   0  0  0  0  0  0  0  0  0  0  0  0
    4.4125   -7.5917    0.0000 C   0  0  0  0  0  0  0  0  0  0  0  0
    2.3167   -8.0167    0.0000 C   0  0  0  0  0  0  0  0  0  0  0  0
    1.5917   -6.7792    0.0000 C   0  0  0  0  0  0  0  0  0  0  0  0
    1.5917   -5.9625    0.0000 S   0  0  0  0  0  0  0  0  0  0  0  0
    0.8792   -8.0250    0.0000 N   0  0  0  0  0  0  0  0  0  0  0  0
    4.8292   -8.3042    0.0000 O   0  0  0  0  0  0  0  0  0  0  0  0
    4.8167   -6.8792    0.0000 N   0  0  0  0  0  0  0  0  0  0  0  0
    1.0250   -5.3625    0.0000 C   0  0  0  0  0  0  0  0  0  0  0  0
    1.5917   -8.4375    0.0000 C   0  0  0  0  0  0  0  0  0  0  0  0
    0.8792   -7.2000    0.0000 C   0  0  0  0  0  0  0  0  0  0  0  0
   -0.1000   -4.1625    0.0000 C   0  0  0  0  0  0  0  0  0  0  0  0
    1.2667   -4.5750    0.0000 C   0  0  0  0  0  0  0  0  0  0  0  0
    0.2292   -5.5542    0.0000 C   0  0  0  0  0  0  0  0  0  0  0  0
   -0.3375   -4.9542    0.0000 C   0  0  0  0  0  0  0  0  0  0  0  0
    0.7042   -3.9750    0.0000 C   0  0  0  0  0  0  0  0  0  0  0  0
    5.6417   -6.8750    0.0000 O   0  0  0  0  0  0  0  0  0  0  0  0
   -0.6708   -3.5667    0.0000 C   0  0  0  0  0  0  0  0  0  0  0  0
    6.0500   -6.1542    0.0000 C   0  0  0  0  0  0  0  0  0  0  0  0
  2  1  2  0
  3  2  1  0
  4  1  1  0
  5  1  1  0
  6  4  1  0
  7  3  1  0
  8  7  1  0
  9 13  2  0
 10  5  2  0
 11  5  1  0
 12  8  1  0
 13  6  1  0
 14  7  2  0
 15 18  1  0
 16 12  2  0
 17 12  1  0
 18 17  2  0
 19 16  1  0
 20 11  1  0
 21 15  1  0
 22 20  1  0
  3  6  2  0
 14  9  1  0
 19 15  2  0
M  END

> <chembl_id>
CHEMBL269075

> <chembl_pref_name>
None

$$$$

     RDKit          2D

 23 25  0  0  0  0  0  0  0  0999 V2000
    3.5875   -7.6000    0.0000 C   0  0  0  0  0  0  0  0  0  0  0  0
    3.0917   -6.9292    0.0000 C   0  0  0  0  0  0  0  0  0  0  0  0
    4.4125   -7.5917    0.0000 C   0  0  0  0  0  0  0  0  0  0  0  0
    3.1042   -8.2667    0.0000 S   0  0  0  0  0  0  0  0  0  0  0  0
    2.3125   -7.1917    0.0000 C   0  0  0  0  0  0  0  0  0  0  0  0
    2.3167   -8.0167    0.0000 C   0  0  0  0  0  0  0  0  0  0  0  0
    1.5917   -6.7792    0.0000 C   0  0  0  0  0  0  0  0  0  0  0  0
    1.5917   -5.9625    0.0000 S   0  0  0  0  0  0  0  0  0  0  0  0
    4.8167   -6.8792    0.0000 N   0  0  0  0  0  0  0  0  0  0  0  0
    0.8792   -8.0250    0.0000 N   0  0  0  0  0  0  0  0  0  0  0  0
    4.8292   -8.3042    0.0000 O   0  0  0  0  0  0  0  0  0  0  0  0
    1.0250   -5.3625    0.0000 C   0  0  0  0  0  0  0  0  0  0  0  0
    1.5917   -8.4375    0.0000 C   0  0  0  0  0  0  0  0  0  0  0  0
    0.8792   -7.2000    0.0000 C   0  0  0  0  0  0  0  0  0  0  0  0
    5.6417   -6.8750    0.0000 O   0  0  0  0  0  0  0  0  0  0  0  0
   -0.1000   -4.1625    0.0000 C   0  0  0  0  0  0  0  0  0  0  0  0
    0.2292   -5.5542    0.0000 C   0  0  0  0  0  0  0  0  0  0  0  0
    1.2667   -4.5750    0.0000 C   0  0  0  0  0  0  0  0  0  0  0  0
    0.7042   -3.9750    0.0000 C   0  0  0  0  0  0  0  0  0  0  0  0
   -0.3375   -4.9542    0.0000 C   0  0  0  0  0  0  0  0  0  0  0  0
    4.4000   -6.1667    0.0000 C   0  0  0  0  0  0  0  0  0  0  0  0
   -0.6708   -3.5667    0.0000 C   0  0  0  0  0  0  0  0  0  0  0  0
    6.0500   -6.1542    0.0000 C   0  0  0  0  0  0  0  0  0  0  0  0
  2  1  2  0
  3  1  1  0
  4  1  1  0
  5  2  1  0
  6  4  1  0
  7  5  1  0
  8  7  1  0
  9  3  1  0
 10 13  2  0
 11  3  2  0
 12  8  1  0
 13  6  1  0
 14  7  2  0
 15  9  1  0
 16 19  2  0
 17 12  1  0
 18 12  2  0
 19 18  1  0
 20 17  2  0
 21  9  1  0
 22 16  1  0
 23 15  1  0
  5  6  2  0
 14 10  1  0
 16 20  1  0
M  END

> <chembl_id>
CHEMBL6517

> <chembl_pref_name>
None

$$$$

     RDKit          2D

 19 21  0  0  0  0  0  0  0  0999 V2000
    3.7542   -5.0167    0.0000 C   0  0  0  0  0  0  0  0  0  0  0  0
    3.2667   -4.3500    0.0000 C   0  0  0  0  0  0  0  0  0  0  0  0
    2.4792   -4.6125    0.0000 C   0  0  0  0  0  0  0  0  0  0  0  0
    3.2750   -5.6875    0.0000 S   0  0  0  0  0  0  0  0  0  0  0  0
    2.4875   -5.4375    0.0000 C   0  0  0  0  0  0  0  0  0  0  0  0
    1.7667   -4.1917    0.0000 C   0  0  0  0  0  0  0  0  0  0  0  0
    4.5792   -5.0125    0.0000 C   0  0  0  0  0  0  0  0  0  0  0  0
    1.7625   -3.3792    0.0000 S   0  0  0  0  0  0  0  0  0  0  0  0
    1.0417   -2.9667    0.0000 C   0  0  0  0  0  0  0  0  0  0  0  0
    1.0542   -5.4417    0.0000 N   0  0  0  0  0  0  0  0  0  0  0  0
    0.3417   -3.3875    0.0000 N   0  0  0  0  0  0  0  0  0  0  0  0
    4.9875   -4.2917    0.0000 O   0  0  0  0  0  0  0  0  0  0  0  0
    5.0000   -5.7250    0.0000 N   0  0  0  0  0  0  0  0  0  0  0  0
    1.7667   -5.8542    0.0000 C   0  0  0  0  0  0  0  0  0  0  0  0
    1.0542   -4.6167    0.0000 C   0  0  0  0  0  0  0  0  0  0  0  0
   -0.3750   -2.9792    0.0000 C   0  0  0  0  0  0  0  0  0  0  0  0
    1.0417   -2.1417    0.0000 C   0  0  0  0  0  0  0  0  0  0  0  0
   -0.3833   -2.1542    0.0000 C   0  0  0  0  0  0  0  0  0  0  0  0
    0.3292   -1.7375    0.0000 C   0  0  0  0  0  0  0  0  0  0  0  0
  2  1  2  0
  3  2  1  0
  4  1  1  0
  5  4  1  0
  6  3  1  0
  7  1  1  0
  8  6  1  0
  9  8  1  0
 10 14  2  0
 11  9  1  0
 12  7  2  0
 13  7  1  0
 14  5  1  0
 15  6  2  0
 16 11  2  0
 17  9  2  0
 18 19  2  0
 19 17  1  0
  3  5  2  0
 15 10  1  0
 16 18  1  0
M  END

> <chembl_id>
CHEMBL263080

> <chembl_pref_name>
None

$$$$

     RDKit          2D

 25 28  0  0  0  0  0  0  0  0999 V2000
    3.7542   -5.0167    0.0000 C   0  0  0  0  0  0  0  0  0  0  0  0
    3.2667   -4.3500    0.0000 C   0  0  0  0  0  0  0  0  0  0  0  0
    2.4792   -4.6125    0.0000 C   0  0  0  0  0  0  0  0  0  0  0  0
    3.2750   -5.6875    0.0000 S   0  0  0  0  0  0  0  0  0  0  0  0
    2.4875   -5.4375    0.0000 C   0  0  0  0  0  0  0  0  0  0  0  0
    1.7667   -4.1917    0.0000 C   0  0  0  0  0  0  0  0  0  0  0  0
    4.5792   -5.0125    0.0000 C   0  0  0  0  0  0  0  0  0  0  0  0
    1.7625   -3.3792    0.0000 S   0  0  0  0  0  0  0  0  0  0  0  0
    1.0542   -5.4417    0.0000 N   0  0  0  0  0  0  0  0  0  0  0  0
    3.8917   -2.1292    0.0000 C   0  0  0  0  0  0  0  0  0  0  0  0
    4.9875   -4.2917    0.0000 O   0  0  0  0  0  0  0  0  0  0  0  0
    4.6042   -1.7167    0.0000 C   0  0  0  0  0  0  0  0  0  0  0  0
    2.4750   -2.9625    0.0000 C   0  0  0  0  0  0  0  0  0  0  0  0
    3.1750   -1.7250    0.0000 C   0  0  0  0  0  0  0  0  0  0  0  0
    3.9000   -2.9625    0.0000 C   0  0  0  0  0  0  0  0  0  0  0  0
    5.0000   -5.7250    0.0000 N   0  0  0  0  0  0  0  0  0  0  0  0
    1.7667   -5.8542    0.0000 C   0  0  0  0  0  0  0  0  0  0  0  0
    1.0542   -4.6167    0.0000 C   0  0  0  0  0  0  0  0  0  0  0  0
    2.4667   -2.1417    0.0000 C   0  0  0  0  0  0  0  0  0  0  0  0
    3.1875   -3.3750    0.0000 C   0  0  0  0  0  0  0  0  0  0  0  0
    5.3167   -2.1292    0.0000 C   0  0  0  0  0  0  0  0  0  0  0  0
    4.5917   -0.8917    0.0000 C   0  0  0  0  0  0  0  0  0  0  0  0
    5.3042   -0.4792    0.0000 C   0  0  0  0  0  0  0  0  0  0  0  0
    6.0292   -1.7125    0.0000 C   0  0  0  0  0  0  0  0  0  0  0  0
    6.0292   -0.8875    0.0000 C   0  0  0  0  0  0  0  0  0  0  0  0
  2  1  2  0
  3  2  1  0
  4  1  1  0
  5  4  1  0
  6  3  1  0
  7  1  1  0
  8  6  1  0
  9 17  2  0
 10 15  2  0
 11  7  2  0
 12 10  1  0
 13  8  1  0
 14 19  2  0
 15 20  1  0
 16  7  1  0
 17  5  1  0
 18  6  2  0
 19 13  1  0
 20 13  2  0
 21 12  2  0
 22 12  1  0
 23 22  2  0
 24 21  1  0
 25 23  1  0
  3  5  2  0
 18  9  1  0
 14 10  1  0
 24 25  2  0
M  END

> <chembl_id>
CHEMBL6534

> <chembl_pref_name>
None

$$$$

     RDKit          2D

 21 23  0  0  0  0  0  0  0  0999 V2000
    3.7542   -5.0167    0.0000 C   0  0  0  0  0  0  0  0  0  0  0  0
    3.2667   -4.3500    0.0000 C   0  0  0  0  0  0  0  0  0  0  0  0
    2.4792   -4.6125    0.0000 C   0  0  0  0  0  0  0  0  0  0  0  0
    3.2750   -5.6875    0.0000 S   0  0  0  0  0  0  0  0  0  0  0  0
    2.4875   -5.4375    0.0000 C   0  0  0  0  0  0  0  0  0  0  0  0
    1.7667   -4.1917    0.0000 C   0  0  0  0  0  0  0  0  0  0  0  0
    4.5792   -5.0125    0.0000 C   0  0  0  0  0  0  0  0  0  0  0  0
    1.7625   -3.3792    0.0000 S   0  0  0  0  0  0  0  0  0  0  0  0
    1.0542   -5.4417    0.0000 N   0  0  0  0  0  0  0  0  0  0  0  0
    4.9875   -4.2917    0.0000 O   0  0  0  0  0  0  0  0  0  0  0  0
    2.4750   -2.9625    0.0000 C   0  0  0  0  0  0  0  0  0  0  0  0
    5.0000   -5.7250    0.0000 N   0  0  0  0  0  0  0  0  0  0  0  0
    1.7667   -5.8542    0.0000 C   0  0  0  0  0  0  0  0  0  0  0  0
    1.0542   -4.6167    0.0000 C   0  0  0  0  0  0  0  0  0  0  0  0
    3.8917   -2.1292    0.0000 C   0  0  0  0  0  0  0  0  0  0  0  0
    3.1875   -3.3750    0.0000 C   0  0  0  0  0  0  0  0  0  0  0  0
    2.4667   -2.1417    0.0000 C   0  0  0  0  0  0  0  0  0  0  0  0
    3.1750   -1.7250    0.0000 C   0  0  0  0  0  0  0  0  0  0  0  0
    3.9000   -2.9625    0.0000 C   0  0  0  0  0  0  0  0  0  0  0  0
    4.6042   -1.7167    0.0000 O   0  0  0  0  0  0  0  0  0  0  0  0
    5.3250   -2.1250    0.0000 C   0  0  0  0  0  0  0  0  0  0  0  0
  2  1  2  0
  3  2  1  0
  4  1  1  0
  5  4  1  0
  6  3  1  0
  7  1  1  0
  8  6  1  0
  9 13  2  0
 10  7  2  0
 11  8  1  0
 12  7  1  0
 13  5  1  0
 14  6  2  0
 15 18  1  0
 16 11  2  0
 17 11  1  0
 18 17  2  0
 19 16  1  0
 20 15  1  0
 21 20  1  0
  3  5  2  0
 14  9  1  0
 19 15  2  0
M  END

> <chembl_id>
CHEMBL263081

> <chembl_pref_name>
None

$$$$

     RDKit          2D

 20 22  0  0  0  0  0  0  0  0999 V2000
    3.7542   -5.0167    0.0000 C   0  0  0  0  0  0  0  0  0  0  0  0
    3.2667   -4.3500    0.0000 C   0  0  0  0  0  0  0  0  0  0  0  0
    2.4792   -4.6125    0.0000 C   0  0  0  0  0  0  0  0  0  0  0  0
    3.2750   -5.6875    0.0000 S   0  0  0  0  0  0  0  0  0  0  0  0
    2.4875   -5.4375    0.0000 C   0  0  0  0  0  0  0  0  0  0  0  0
    1.7667   -4.1917    0.0000 C   0  0  0  0  0  0  0  0  0  0  0  0
    4.5792   -5.0125    0.0000 C   0  0  0  0  0  0  0  0  0  0  0  0
    1.7625   -3.3792    0.0000 S   0  0  0  0  0  0  0  0  0  0  0  0
    1.0542   -5.4417    0.0000 N   0  0  0  0  0  0  0  0  0  0  0  0
    4.9875   -4.2917    0.0000 O   0  0  0  0  0  0  0  0  0  0  0  0
    2.4750   -2.9625    0.0000 C   0  0  0  0  0  0  0  0  0  0  0  0
    5.0000   -5.7250    0.0000 N   0  0  0  0  0  0  0  0  0  0  0  0
    1.7667   -5.8542    0.0000 C   0  0  0  0  0  0  0  0  0  0  0  0
    1.0542   -4.6167    0.0000 C   0  0  0  0  0  0  0  0  0  0  0  0
    3.8917   -2.1292    0.0000 C   0  0  0  0  0  0  0  0  0  0  0  0
    4.6042   -1.7167    0.0000 Br  0  0  0  0  0  0  0  0  0  0  0  0
    2.4667   -2.1417    0.0000 C   0  0  0  0  0  0  0  0  0  0  0  0
    3.1875   -3.3750    0.0000 C   0  0  0  0  0  0  0  0  0  0  0  0
    3.9000   -2.9625    0.0000 C   0  0  0  0  0  0  0  0  0  0  0  0
    3.1750   -1.7250    0.0000 C   0  0  0  0  0  0  0  0  0  0  0  0
  2  1  2  0
  3  2  1  0
  4  1  1  0
  5  4  1  0
  6  3  1  0
  7  1  1  0
  8  6  1  0
  9 13  2  0
 10  7  2  0
 11  8  1  0
 12  7  1  0
 13  5  1  0
 14  6  2  0
 15 19  2  0
 16 15  1  0
 17 11  1  0
 18 11  2  0
 19 18  1  0
 20 17  2  0
  3  5  2  0
 14  9  1  0
 20 15  1  0
M  END

> <chembl_id>
CHEMBL266198

> <chembl_pref_name>
None

$$$$

     RDKit          2D

 21 23  0  0  0  0  0  0  0  0999 V2000
    3.7542   -5.0167    0.0000 C   0  0  0  0  0  0  0  0  0  0  0  0
    3.2667   -4.3500    0.0000 C   0  0  0  0  0  0  0  0  0  0  0  0
    2.4792   -4.6125    0.0000 C   0  0  0  0  0  0  0  0  0  0  0  0
    3.2750   -5.6875    0.0000 S   0  0  0  0  0  0  0  0  0  0  0  0
    2.4875   -5.4375    0.0000 C   0  0  0  0  0  0  0  0  0  0  0  0
    1.7667   -4.1917    0.0000 C   0  0  0  0  0  0  0  0  0  0  0  0
    4.5792   -5.0125    0.0000 C   0  0  0  0  0  0  0  0  0  0  0  0
    1.7625   -3.3792    0.0000 S   0  0  0  0  0  0  0  0  0  0  0  0
    3.1750   -1.7250    0.0000 C   0  0  0  0  0  0  0  0  0  0  0  0
    2.4667   -2.1417    0.0000 C   0  0  0  0  0  0  0  0  0  0  0  0
    1.0542   -5.4417    0.0000 N   0  0  0  0  0  0  0  0  0  0  0  0
    2.4750   -2.9625    0.0000 C   0  0  0  0  0  0  0  0  0  0  0  0
    3.8917   -2.1292    0.0000 C   0  0  0  0  0  0  0  0  0  0  0  0
    4.9875   -4.2917    0.0000 O   0  0  0  0  0  0  0  0  0  0  0  0
    3.9000   -2.9625    0.0000 C   0  0  0  0  0  0  0  0  0  0  0  0
    5.0000   -5.7250    0.0000 N   0  0  0  0  0  0  0  0  0  0  0  0
    1.7667   -5.8542    0.0000 C   0  0  0  0  0  0  0  0  0  0  0  0
    3.1667   -0.9000    0.0000 Cl  0  0  0  0  0  0  0  0  0  0  0  0
    1.0542   -4.6167    0.0000 C   0  0  0  0  0  0  0  0  0  0  0  0
    3.1875   -3.3750    0.0000 C   0  0  0  0  0  0  0  0  0  0  0  0
    4.6042   -1.7167    0.0000 Cl  0  0  0  0  0  0  0  0  0  0  0  0
  2  1  2  0
  3  2  1  0
  4  1  1  0
  5  4  1  0
  6  3  1  0
  7  1  1  0
  8  6  1  0
  9 10  2  0
 10 12  1  0
 11 17  2  0
 12  8  1  0
 13 15  2  0
 14  7  2  0
 15 20  1  0
 16  7  1  0
 17  5  1  0
 18  9  1  0
 19  6  2  0
 20 12  2  0
 21 13  1  0
  3  5  2  0
 19 11  1  0
  9 13  1  0
M  END

> <chembl_id>
CHEMBL6612

> <chembl_pref_name>
None

$$$$

     RDKit          2D

 20 22  0  0  0  0  0  0  0  0999 V2000
    3.7542   -5.0167    0.0000 C   0  0  0  0  0  0  0  0  0  0  0  0
    3.2667   -4.3500    0.0000 C   0  0  0  0  0  0  0  0  0  0  0  0
    2.4792   -4.6125    0.0000 C   0  0  0  0  0  0  0  0  0  0  0  0
    3.2750   -5.6875    0.0000 S   0  0  0  0  0  0  0  0  0  0  0  0
    2.4875   -5.4375    0.0000 C   0  0  0  0  0  0  0  0  0  0  0  0
    1.7667   -4.1917    0.0000 C   0  0  0  0  0  0  0  0  0  0  0  0
    4.5792   -5.0125    0.0000 C   0  0  0  0  0  0  0  0  0  0  0  0
    1.7625   -3.3792    0.0000 S   0  0  0  0  0  0  0  0  0  0  0  0
    1.0542   -5.4417    0.0000 N   0  0  0  0  0  0  0  0  0  0  0  0
    4.9875   -4.2917    0.0000 O   0  0  0  0  0  0  0  0  0  0  0  0
    2.4750   -2.9625    0.0000 C   0  0  0  0  0  0  0  0  0  0  0  0
    5.0000   -5.7250    0.0000 N   0  0  0  0  0  0  0  0  0  0  0  0
    1.7667   -5.8542    0.0000 C   0  0  0  0  0  0  0  0  0  0  0  0
    1.0542   -4.6167    0.0000 C   0  0  0  0  0  0  0  0  0  0  0  0
    3.8917   -2.1292    0.0000 C   0  0  0  0  0  0  0  0  0  0  0  0
    4.6042   -1.7167    0.0000 Cl  0  0  0  0  0  0  0  0  0  0  0  0
    2.4667   -2.1417    0.0000 C   0  0  0  0  0  0  0  0  0  0  0  0
    3.1875   -3.3750    0.0000 C   0  0  0  0  0  0  0  0  0  0  0  0
    3.9000   -2.9625    0.0000 C   0  0  0  0  0  0  0  0  0  0  0  0
    3.1750   -1.7250    0.0000 C   0  0  0  0  0  0  0  0  0  0  0  0
  2  1  2  0
  3  2  1  0
  4  1  1  0
  5  4  1  0
  6  3  1  0
  7  1  1  0
  8  6  1  0
  9 13  2  0
 10  7  2  0
 11  8  1  0
 12  7  1  0
 13  5  1  0
 14  6  2  0
 15 19  2  0
 16 15  1  0
 17 11  1  0
 18 11  2  0
 19 18  1  0
 20 17  2  0
  3  5  2  0
 14  9  1  0
 20 15  1  0
M  END

> <chembl_id>
CHEMBL268567

> <chembl_pref_name>
None

$$$$

     RDKit          2D

 25 27  0  0  0  0  0  0  0  0999 V2000
    4.2542   -7.0167    0.0000 C   0  0  0  0  0  0  0  0  0  0  0  0
    3.7625   -6.3542    0.0000 C   0  0  0  0  0  0  0  0  0  0  0  0
    2.9792   -6.6167    0.0000 C   0  0  0  0  0  0  0  0  0  0  0  0
    3.7667   -7.6917    0.0000 S   0  0  0  0  0  0  0  0  0  0  0  0
    2.9792   -7.4417    0.0000 C   0  0  0  0  0  0  0  0  0  0  0  0
    5.0792   -7.0167    0.0000 C   0  0  0  0  0  0  0  0  0  0  0  0
    2.2542   -6.2042    0.0000 C   0  0  0  0  0  0  0  0  0  0  0  0
    2.2542   -5.3792    0.0000 S   0  0  0  0  0  0  0  0  0  0  0  0
    5.4875   -6.3000    0.0000 N   0  0  0  0  0  0  0  0  0  0  0  0
    1.5500   -7.4417    0.0000 N   0  0  0  0  0  0  0  0  0  0  0  0
    5.4917   -7.7292    0.0000 O   0  0  0  0  0  0  0  0  0  0  0  0
    1.6917   -4.7792    0.0000 C   0  0  0  0  0  0  0  0  0  0  0  0
    6.3125   -6.2917    0.0000 C   0  0  0  0  0  0  0  0  0  0  0  0
    2.2542   -7.8542    0.0000 C   0  0  0  0  0  0  0  0  0  0  0  0
    1.5500   -6.6167    0.0000 C   0  0  0  0  0  0  0  0  0  0  0  0
    6.7167   -5.5792    0.0000 C   0  0  0  0  0  0  0  0  0  0  0  0
    0.5667   -3.5792    0.0000 C   0  0  0  0  0  0  0  0  0  0  0  0
    1.9292   -3.9917    0.0000 C   0  0  0  0  0  0  0  0  0  0  0  0
    0.8917   -4.9750    0.0000 C   0  0  0  0  0  0  0  0  0  0  0  0
    0.3292   -4.3792    0.0000 C   0  0  0  0  0  0  0  0  0  0  0  0
    1.3667   -3.3917    0.0000 C   0  0  0  0  0  0  0  0  0  0  0  0
    6.3000   -4.8667    0.0000 O   0  0  0  0  0  0  0  0  0  0  0  0
    7.9500   -4.8542    0.0000 O   0  0  0  0  0  0  0  0  0  0  0  0
    7.5417   -5.5667    0.0000 C   0  0  0  0  0  0  0  0  0  0  0  0
    0.0000   -2.9875    0.0000 C   0  0  0  0  0  0  0  0  0  0  0  0
  2  1  2  0
  3  2  1  0
  4  1  1  0
  5  4  1  0
  6  1  1  0
  7  3  1  0
  8  7  1  0
  9  6  1  0
 10 14  2  0
 11  6  2  0
 12  8  1  0
 13  9  1  0
 14  5  1  0
 15  7  2  0
 16 13  1  0
 17 20  1  0
 18 12  2  0
 19 12  1  0
 20 19  2  0
 21 18  1  0
 22 16  1  0
 23 24  1  0
 24 16  1  0
 25 17  1  0
  3  5  2  0
 15 10  1  0
 21 17  2  0
M  END

> <chembl_id>
CHEMBL428508

> <chembl_pref_name>
None

$$$$

     RDKit          2D

 27 30  0  0  0  0  0  0  0  0999 V2000
    4.2542   -7.0167    0.0000 C   0  0  0  0  0  0  0  0  0  0  0  0
    3.7625   -6.3542    0.0000 C   0  0  0  0  0  0  0  0  0  0  0  0
    2.9792   -6.6167    0.0000 C   0  0  0  0  0  0  0  0  0  0  0  0
    3.7667   -7.6917    0.0000 S   0  0  0  0  0  0  0  0  0  0  0  0
    5.0792   -7.0167    0.0000 C   0  0  0  0  0  0  0  0  0  0  0  0
    2.9792   -7.4417    0.0000 C   0  0  0  0  0  0  0  0  0  0  0  0
    2.2542   -6.2042    0.0000 C   0  0  0  0  0  0  0  0  0  0  0  0
    5.4875   -6.3000    0.0000 N   0  0  0  0  0  0  0  0  0  0  0  0
    2.2542   -5.3792    0.0000 S   0  0  0  0  0  0  0  0  0  0  0  0
    1.5500   -7.4417    0.0000 N   0  0  0  0  0  0  0  0  0  0  0  0
    5.4917   -7.7292    0.0000 O   0  0  0  0  0  0  0  0  0  0  0  0
    6.3125   -6.2917    0.0000 C   0  0  0  0  0  0  0  0  0  0  0  0
    1.6917   -4.7792    0.0000 C   0  0  0  0  0  0  0  0  0  0  0  0
    2.2542   -7.8542    0.0000 C   0  0  0  0  0  0  0  0  0  0  0  0
    1.5500   -6.6167    0.0000 C   0  0  0  0  0  0  0  0  0  0  0  0
    7.9542   -6.2875    0.0000 C   0  0  0  0  0  0  0  0  0  0  0  0
    0.5667   -3.5792    0.0000 C   0  0  0  0  0  0  0  0  0  0  0  0
    8.7792   -6.2792    0.0000 Cl  0  0  0  0  0  0  0  0  0  0  0  0
    6.7125   -5.5792    0.0000 C   0  0  0  0  0  0  0  0  0  0  0  0
    6.7250   -7.0042    0.0000 C   0  0  0  0  0  0  0  0  0  0  0  0
    0.8917   -4.9750    0.0000 C   0  0  0  0  0  0  0  0  0  0  0  0
    1.9292   -3.9917    0.0000 C   0  0  0  0  0  0  0  0  0  0  0  0
    7.5500   -7.0042    0.0000 C   0  0  0  0  0  0  0  0  0  0  0  0
    7.5375   -5.5667    0.0000 C   0  0  0  0  0  0  0  0  0  0  0  0
    1.3667   -3.3917    0.0000 C   0  0  0  0  0  0  0  0  0  0  0  0
    0.3292   -4.3792    0.0000 C   0  0  0  0  0  0  0  0  0  0  0  0
    0.0000   -2.9875    0.0000 C   0  0  0  0  0  0  0  0  0  0  0  0
  2  1  2  0
  3  2  1  0
  4  1  1  0
  5  1  1  0
  6  4  1  0
  7  3  1  0
  8  5  1  0
  9  7  1  0
 10 14  2  0
 11  5  2  0
 12  8  1  0
 13  9  1  0
 14  6  1  0
 15  7  2  0
 16 23  2  0
 17 25  2  0
 18 16  1  0
 19 12  1  0
 20 12  2  0
 21 13  1  0
 22 13  2  0
 23 20  1  0
 24 19  2  0
 25 22  1  0
 26 21  2  0
 27 17  1  0
  3  6  2  0
 15 10  1  0
 24 16  1  0
 26 17  1  0
M  END

> <chembl_id>
CHEMBL6417

> <chembl_pref_name>
None

$$$$

     RDKit          2D

 20 22  0  0  0  0  0  0  0  0999 V2000
    8.3667   -8.3417    0.0000 C   0  0  0  0  0  0  0  0  0  0  0  0
    7.8792   -7.6667    0.0000 C   0  0  0  0  0  0  0  0  0  0  0  0
    7.0917   -7.9292    0.0000 C   0  0  0  0  0  0  0  0  0  0  0  0
    7.8792   -9.0042    0.0000 S   0  0  0  0  0  0  0  0  0  0  0  0
    7.0917   -8.7542    0.0000 C   0  0  0  0  0  0  0  0  0  0  0  0
    9.1917   -8.3292    0.0000 C   0  0  0  0  0  0  0  0  0  0  0  0
    6.3792   -7.5167    0.0000 C   0  0  0  0  0  0  0  0  0  0  0  0
    6.3667   -6.7042    0.0000 S   0  0  0  0  0  0  0  0  0  0  0  0
    5.6667   -8.7667    0.0000 N   0  0  0  0  0  0  0  0  0  0  0  0
    9.6042   -7.6167    0.0000 S   0  0  0  0  0  0  0  0  0  0  0  0
    5.8042   -6.1042    0.0000 C   0  0  0  0  0  0  0  0  0  0  0  0
    9.6125   -9.0417    0.0000 N   0  0  0  0  0  0  0  0  0  0  0  0
    6.3792   -9.1792    0.0000 C   0  0  0  0  0  0  0  0  0  0  0  0
    5.6667   -7.9417    0.0000 C   0  0  0  0  0  0  0  0  0  0  0  0
    4.6792   -4.9042    0.0000 C   0  0  0  0  0  0  0  0  0  0  0  0
    6.0417   -5.3167    0.0000 C   0  0  0  0  0  0  0  0  0  0  0  0
    5.0042   -6.2917    0.0000 C   0  0  0  0  0  0  0  0  0  0  0  0
    4.4417   -5.6917    0.0000 C   0  0  0  0  0  0  0  0  0  0  0  0
    5.4792   -4.7167    0.0000 C   0  0  0  0  0  0  0  0  0  0  0  0
    4.1167   -4.3042    0.0000 C   0  0  0  0  0  0  0  0  0  0  0  0
  2  1  2  0
  3  2  1  0
  4  1  1  0
  5  4  1  0
  6  1  1  0
  7  3  1  0
  8  7  1  0
  9 13  2  0
 10  6  1  0
 11  8  1  0
 12  6  2  0
 13  5  1  0
 14  7  2  0
 15 18  1  0
 16 11  2  0
 17 11  1  0
 18 17  2  0
 19 16  1  0
 20 15  1  0
  5  3  2  0
  9 14  1  0
 19 15  2  0
M  END

> <chembl_id>
CHEMBL266429

> <chembl_pref_name>
None

$$$$

     RDKit          2D

 24 25  0  0  0  0  0  0  0  0999 V2000
    3.8375   -2.4667    0.0000 C   0  0  0  0  0  0  0  0  0  0  0  0
    5.9792   -2.0500    0.0000 C   0  0  0  0  0  0  0  0  0  0  0  0
    2.4042   -3.3000    0.0000 C   0  0  0  0  0  0  0  0  0  0  0  0
    7.4042   -1.2167    0.0000 C   0  0  0  0  0  0  0  0  0  0  0  0
    3.1167   -3.7125    0.0000 C   0  0  0  0  0  0  0  0  0  0  0  0
    7.4042   -2.0417    0.0000 C   0  0  0  0  0  0  0  0  0  0  0  0
    2.4042   -2.4750    0.0000 C   0  0  0  0  0  0  0  0  0  0  0  0
    6.6792   -0.8125    0.0000 C   0  0  0  0  0  0  0  0  0  0  0  0
    4.5500   -2.0542    0.0000 C   0  0  0  0  0  0  0  0  0  0  0  0
    5.2667   -2.4625    0.0000 C   0  0  0  0  0  0  0  0  0  0  0  0
    3.1167   -2.0542    0.0000 C   0  0  0  0  0  0  0  0  0  0  0  0
    3.8375   -3.3000    0.0000 C   0  0  0  0  0  0  0  0  0  0  0  0
    6.6917   -2.4625    0.0000 C   0  0  0  0  0  0  0  0  0  0  0  0
    5.9667   -1.2292    0.0000 C   0  0  0  0  0  0  0  0  0  0  0  0
    1.6917   -2.0625    0.0000 Br  0  0  0  0  0  0  0  0  0  0  0  0
    3.1167   -4.5375    0.0000 Br  0  0  0  0  0  0  0  0  0  0  0  0
    6.6750    0.0125    0.0000 Br  0  0  0  0  0  0  0  0  0  0  0  0
    8.1167   -2.4542    0.0000 Br  0  0  0  0  0  0  0  0  0  0  0  0
    8.1125   -0.8042    0.0000 O   0  0  0  0  0  0  0  0  0  0  0  0
    1.6917   -3.7042    0.0000 O   0  0  0  0  0  0  0  0  0  0  0  0
    4.5417   -1.2292    0.0000 C   0  0  0  0  0  0  0  0  0  0  0  0
    5.2667   -3.2875    0.0000 C   0  0  0  0  0  0  0  0  0  0  0  0
    3.8292   -0.8167    0.0000 C   0  0  0  0  0  0  0  0  0  0  0  0
    5.9792   -3.7000    0.0000 C   0  0  0  0  0  0  0  0  0  0  0  0
  2 10  1  0
  3  5  1  0
  4  8  1  0
  5 12  2  0
  6 13  1  0
  7 11  1  0
  8 14  2  0
  9  1  1  0
 10  9  1  0
 11  1  2  0
 12  1  1  0
 13  2  2  0
 14  2  1  0
 15  7  1  0
 16  5  1  0
 17  8  1  0
 18  6  1  0
 19  4  1  0
 20  3  1  0
 21  9  1  0
 22 10  1  0
 23 21  1  0
 24 22  1  0
  7  3  2  0
  6  4  2  0
M  END

> <chembl_id>
CHEMBL6490

> <chembl_pref_name>
None

$$$$

     RDKit          2D

 34 38  0  0  1  0  0  0  0  0999 V2000
    4.9667   -5.8542    0.0000 C   0  0  0  0  0  0  0  0  0  0  0  0
    4.9667   -5.0667    0.0000 C   0  0  0  0  0  0  0  0  0  0  0  0
    2.8042   -6.2542    0.0000 C   0  0  0  0  0  0  0  0  0  0  0  0
    5.7250   -3.8042    0.0000 C   0  0  0  0  0  0  0  0  0  0  0  0
    4.2625   -6.2542    0.0000 C   0  0  0  0  0  0  0  0  0  0  0  0
    5.7250   -4.6667    0.0000 C   0  0  0  0  0  0  0  0  0  0  0  0
    6.4125   -5.8542    0.0000 C   0  0  0  0  0  0  0  0  0  0  0  0
    3.5250   -5.8542    0.0000 C   0  0  0  0  0  0  0  0  0  0  0  0
    6.4125   -5.0667    0.0000 C   0  0  0  0  0  0  0  0  0  0  0  0
    5.0042   -3.3625    0.0000 C   0  0  0  0  0  0  0  0  0  0  0  0
    2.8042   -7.1125    0.0000 C   0  0  0  0  0  0  0  0  0  0  0  0
    4.2625   -4.6667    0.0000 C   0  0  0  0  0  0  0  0  0  0  0  0
    5.2292   -2.5250    0.0000 C   0  0  0  0  0  0  0  0  0  0  0  0
    3.5250   -5.0667    0.0000 C   0  0  0  0  0  0  0  0  0  0  0  0
    7.1000   -4.6750    0.0000 O   0  0  0  0  0  0  0  0  0  0  0  0
    6.1500   -2.5250    0.0000 O   0  0  0  0  0  0  0  0  0  0  0  0
    2.1167   -5.8542    0.0000 C   0  0  0  0  0  0  0  0  0  0  0  0
    4.2625   -7.1125    0.0000 C   0  0  0  0  0  0  0  0  0  0  0  0
    6.4042   -3.2667    0.0000 C   0  0  0  0  0  0  0  0  0  0  0  0
    7.7875   -5.0667    0.0000 C   0  0  0  0  0  0  0  0  0  0  0  0
    3.5250   -7.5000    0.0000 C   0  0  0  0  0  0  0  0  0  0  0  0
    4.9667   -6.8417    0.0000 O   0  0  0  0  0  0  0  0  0  0  0  0
    2.1167   -7.5000    0.0000 C   0  0  0  0  0  0  0  0  0  0  0  0
    0.1250   -7.2167    0.0000 C   0  0  0  0  0  0  0  0  0  0  0  0
    4.7125   -1.9167    0.0000 O   0  0  0  0  0  0  0  0  0  0  0  0
    7.7792   -5.8917    0.0000 O   0  0  0  0  0  0  0  0  0  0  0  0
   -0.4625   -7.6250    0.0000 O   0  0  0  0  0  0  0  0  0  0  0  0
    4.9667   -4.1625    0.0000 C   0  0  0  0  0  0  0  0  0  0  0  0
    1.3625   -6.2542    0.0000 C   0  0  0  0  0  0  0  0  0  0  0  0
    1.3625   -7.1125    0.0000 C   0  0  0  0  0  0  0  0  0  0  0  0
    2.8042   -5.4250    0.0000 C   0  0  0  0  0  0  0  0  0  0  0  0
    0.7750   -7.5167    0.0000 O   0  0  0  0  0  0  0  0  0  0  0  0
    8.5000   -4.6625    0.0000 C   0  0  0  0  0  0  0  0  0  0  0  0
    6.3125   -4.3167    0.0000 H   0  0  0  0  0  0  0  0  0  0  0  0
  2  1  1  0
  3  8  1  0
  4  6  1  0
  5  1  1  0
  6  2  1  0
  7  1  1  0
  8  5  1  0
  9  7  1  0
 10  4  2  0
 11 21  1  0
 12  2  1  0
 13 10  1  0
 14  8  1  0
 15  9  1  0
 16 19  1  0
 17  3  1  0
 18  5  1  0
 19  4  1  0
 20 15  1  0
 21 18  1  0
 22  1  1  0
 23 11  1  0
 24 32  1  0
 25 13  2  0
 26 20  2  0
 27 24  2  0
 28  2  1  0
 29 17  1  0
 30 23  1  0
 31  3  1  0
 32 30  1  0
 33 20  1  0
  6 34  1  6
  9  6  1  0
 14 12  1  0
 11  3  1  0
 16 13  1  0
 30 29  1  0
M  END

> <chembl_id>
CHEMBL414201

> <chembl_pref_name>
None

$$$$

     RDKit          2D

 16 18  0  0  0  0  0  0  0  0999 V2000
    2.4942   -0.0844    0.0000 O   0  0  0  0  0  0  0  0  0  0  0  0
    5.3276   -0.8394    0.0000 N   0  0  0  0  0  0  0  0  0  0  0  0
    7.3541    0.0871    0.0000 N   0  0  0  0  0  0  0  0  0  0  0  0
    5.7401    0.4302    0.0000 C   0  0  0  0  0  0  0  0  0  0  0  0
    4.9151    0.4302    0.0000 C   0  0  0  0  0  0  0  0  0  0  0  0
    5.9951   -0.3545    0.0000 C   0  0  0  0  0  0  0  0  0  0  0  0
    4.6602   -0.3545    0.0000 C   0  0  0  0  0  0  0  0  0  0  0  0
    6.8021   -0.5260    0.0000 C   0  0  0  0  0  0  0  0  0  0  0  0
    3.8532   -0.5260    0.0000 C   0  0  0  0  0  0  0  0  0  0  0  0
    4.3631    1.0432    0.0000 C   0  0  0  0  0  0  0  0  0  0  0  0
    6.2922    1.0432    0.0000 C   0  0  0  0  0  0  0  0  0  0  0  0
    3.3012    0.0871    0.0000 C   0  0  0  0  0  0  0  0  0  0  0  0
    3.5561    0.8717    0.0000 C   0  0  0  0  0  0  0  0  0  0  0  0
    7.0991    0.8717    0.0000 C   0  0  0  0  0  0  0  0  0  0  0  0
    7.0570   -1.3106    0.0000 C   0  0  0  0  0  0  0  0  0  0  0  0
    2.2393   -0.8691    0.0000 C   0  0  0  0  0  0  0  0  0  0  0  0
  1 12  1  0
  1 16  1  0
  2  6  1  0
  2  7  1  0
  3  8  1  0
  3 14  2  0
  4  5  1  0
  4  6  1  0
  4 11  2  0
  5  7  1  0
  5 10  2  0
  6  8  2  0
  7  9  2  0
  8 15  1  0
  9 12  1  0
 10 13  1  0
 11 14  1  0
 12 13  2  0
M  END

> <chembl_id>
CHEMBL269538

> <chembl_pref_name>
HARMINE

$$$$

     RDKit          2D

 14 16  0  0  0  0  0  0  0  0999 V2000
    5.9042   -1.7417    0.0000 N   0  0  0  0  0  0  0  0  0  0  0  0
    6.3667   -1.0750    0.0000 C   0  0  0  0  0  0  0  0  0  0  0  0
    5.1042   -1.5042    0.0000 C   0  0  0  0  0  0  0  0  0  0  0  0
    5.8750   -0.4125    0.0000 C   0  0  0  0  0  0  0  0  0  0  0  0
    5.0917   -0.6792    0.0000 C   0  0  0  0  0  0  0  0  0  0  0  0
    4.4042   -1.9375    0.0000 C   0  0  0  0  0  0  0  0  0  0  0  0
    7.5250   -0.2167    0.0000 N   0  0  0  0  0  0  0  0  0  0  0  0
    7.1917   -0.9750    0.0000 C   0  0  0  0  0  0  0  0  0  0  0  0
    4.4042   -2.7625    0.0000 Br  0  0  0  0  0  0  0  0  0  0  0  0
    6.1917    0.3500    0.0000 C   0  0  0  0  0  0  0  0  0  0  0  0
    4.3667   -0.2917    0.0000 C   0  0  0  0  0  0  0  0  0  0  0  0
    3.6667   -0.7167    0.0000 C   0  0  0  0  0  0  0  0  0  0  0  0
    7.0125    0.4583    0.0000 C   0  0  0  0  0  0  0  0  0  0  0  0
    3.6792   -1.5375    0.0000 C   0  0  0  0  0  0  0  0  0  0  0  0
  2  1  1  0
  3  1  1  0
  4  2  2  0
  5  3  1  0
  6  3  2  0
  7  8  1  0
  8  2  1  0
  9  6  1  0
 10  4  1  0
 11  5  2  0
 12 14  2  0
 13  7  1  0
 14  6  1  0
  5  4  1  0
 12 11  1  0
 10 13  1  0
M  END

> <chembl_id>
CHEMBL6857

> <chembl_pref_name>
None

$$$$

     RDKit          2D

 14 16  0  0  0  0  0  0  0  0999 V2000
   -0.6500   -0.1917    0.0000 N   0  0  0  0  0  0  0  0  0  0  0  0
   -0.1875    0.4708    0.0000 C   0  0  0  0  0  0  0  0  0  0  0  0
   -1.4458    0.0375    0.0000 C   0  0  0  0  0  0  0  0  0  0  0  0
   -0.6833    1.1333    0.0000 C   0  0  0  0  0  0  0  0  0  0  0  0
   -1.4583    0.8625    0.0000 C   0  0  0  0  0  0  0  0  0  0  0  0
    0.9667    1.3333    0.0000 N   0  0  0  0  0  0  0  0  0  0  0  0
    0.6375    0.5708    0.0000 C   0  0  0  0  0  0  0  0  0  0  0  0
   -2.1458   -0.3917    0.0000 C   0  0  0  0  0  0  0  0  0  0  0  0
   -2.1500   -1.2167    0.0000 Br  0  0  0  0  0  0  0  0  0  0  0  0
   -0.3583    1.8958    0.0000 C   0  0  0  0  0  0  0  0  0  0  0  0
   -2.1833    1.2583    0.0000 C   0  0  0  0  0  0  0  0  0  0  0  0
    0.4542    2.0000    0.0000 C   0  0  0  0  0  0  0  0  0  0  0  0
   -2.8875    0.8250    0.0000 C   0  0  0  0  0  0  0  0  0  0  0  0
   -2.8750    0.0083    0.0000 C   0  0  0  0  0  0  0  0  0  0  0  0
  2  1  1  0
  3  1  1  0
  4  2  2  0
  5  3  1  0
  6  7  2  0
  7  2  1  0
  8  3  2  0
  9  8  1  0
 10  4  1  0
 11  5  2  0
 12  6  1  0
 13 14  2  0
 14  8  1  0
  5  4  1  0
 13 11  1  0
 10 12  1  0
M  END

> <chembl_id>
CHEMBL6746

> <chembl_pref_name>
None

$$$$

     RDKit          2D

 51 53  0  0  1  0  0  0  0  0999 V2000
    3.6000   -3.8042    0.0000 N   0  0  0  0  0  0  0  0  0  0  0  0
    2.8875   -3.3917    0.0000 C   0  0  0  0  0  0  0  0  0  0  0  0
    5.0167   -3.7542    0.0000 C   0  0  0  0  0  0  0  0  0  0  0  0
    7.1542   -0.2167    0.0000 C   0  0  0  0  0  0  0  0  0  0  0  0
    6.6250   -3.7792    0.0000 C   0  0  0  0  0  0  0  0  0  0  0  0
    6.4417   -1.4000    0.0000 N   0  0  0  0  0  0  0  0  0  0  0  0
    5.7417   -1.7792    0.0000 C   0  0  0  0  0  0  0  0  0  0  0  0
    4.3167   -4.1417    0.0000 C   0  0  0  0  0  0  0  0  0  0  0  0
    6.4542   -0.6042    0.0000 C   0  0  0  0  0  0  0  0  0  0  0  0
    5.0375   -2.9625    0.0000 N   0  0  0  0  0  0  0  0  0  0  0  0
    7.1667    0.5750    0.0000 N   0  0  0  0  0  0  0  0  0  0  0  0
    6.4250   -4.9292    0.0000 N   0  0  0  0  0  0  0  0  0  0  0  0
    6.0750   -4.2417    0.0000 C   0  0  0  0  0  0  0  0  0  0  0  0
    5.7292   -2.5792    0.0000 C   0  0  0  0  0  0  0  0  0  0  0  0
    7.8667    0.9583    0.0000 C   0  0  0  0  0  0  0  0  0  0  0  0
    7.3042   -4.1792    0.0000 C   0  0  0  0  0  0  0  0  0  0  0  0
    7.8792    1.7583    0.0000 C   0  0  0  0  0  0  0  0  0  0  0  0
    6.4125   -2.9875    0.0000 C   0  0  0  0  0  0  0  0  0  0  0  0
    7.1792   -4.8917    0.0000 C   0  0  0  0  0  0  0  0  0  0  0  0
    5.7792   -0.1917    0.0000 C   0  0  0  0  0  0  0  0  0  0  0  0
    2.8875   -2.5625    0.0000 O   0  0  0  0  0  0  0  0  0  0  0  0
    5.7000   -4.1667    0.0000 O   0  0  0  0  0  0  0  0  0  0  0  0
    7.8292   -0.6292    0.0000 O   0  0  0  0  0  0  0  0  0  0  0  0
    5.0667   -1.3667    0.0000 O   0  0  0  0  0  0  0  0  0  0  0  0
    7.2042    2.1625    0.0000 O   0  0  0  0  0  0  0  0  0  0  0  0
    8.5500    0.5500    0.0000 C   0  0  0  0  0  0  0  0  0  0  0  0
    2.1667   -3.8042    0.0000 C   0  0  0  0  0  0  0  0  0  0  0  0
    3.0542   -4.3792    0.0000 C   0  0  0  0  0  0  0  0  0  0  0  0
    8.5792    2.1333    0.0000 O   0  0  0  0  0  0  0  0  0  0  0  0
   -1.4083   -3.3917    0.0000 N   0  0  0  0  0  0  0  0  0  0  0  0
    0.7375   -7.1042    0.0000 N   0  0  0  0  0  0  0  0  0  0  0  0
    4.2250   -4.9292    0.0000 C   0  0  0  0  0  0  0  0  0  0  0  0
    3.4417   -5.0792    0.0000 C   0  0  0  0  0  0  0  0  0  0  0  0
    8.0292   -3.9917    0.0000 C   0  0  0  0  0  0  0  0  0  0  0  0
    9.2417    0.9333    0.0000 C   0  0  0  0  0  0  0  0  0  0  0  0
    4.7417    0.7125    0.0000 C   0  0  0  0  0  0  0  0  0  0  0  0
    5.8917    0.8208    0.0000 C   0  0  0  0  0  0  0  0  0  0  0  0
    4.8042   -0.6875    0.0000 C   0  0  0  0  0  0  0  0  0  0  0  0
    7.7792   -5.4167    0.0000 C   0  0  0  0  0  0  0  0  0  0  0  0
    0.7375   -6.2792    0.0000 C   0  0  0  0  0  0  0  0  0  0  0  0
   -0.6875   -3.8042    0.0000 C   0  0  0  0  0  0  0  0  0  0  0  0
    1.4542   -3.3917    0.0000 C   0  0  0  0  0  0  0  0  0  0  0  0
    2.1667   -4.6292    0.0000 C   0  0  0  0  0  0  0  0  0  0  0  0
    0.0250   -3.3917    0.0000 C   0  0  0  0  0  0  0  0  0  0  0  0
    1.4542   -5.8667    0.0000 C   0  0  0  0  0  0  0  0  0  0  0  0
    1.4542   -5.0417    0.0000 C   0  0  0  0  0  0  0  0  0  0  0  0
    0.7375   -3.8042    0.0000 C   0  0  0  0  0  0  0  0  0  0  0  0
    9.9292    0.5208    0.0000 C   0  0  0  0  0  0  0  0  0  0  0  0
    9.2792    1.7083    0.0000 C   0  0  0  0  0  0  0  0  0  0  0  0
    8.6250   -4.5042    0.0000 C   0  0  0  0  0  0  0  0  0  0  0  0
    8.5042   -5.2250    0.0000 C   0  0  0  0  0  0  0  0  0  0  0  0
  2  1  1  0
  8  3  1  1
  4  9  1  0
  5 18  1  0
  6  7  1  0
  7 14  1  0
  8  1  1  0
  9  6  1  0
 10  3  1  0
 11  4  1  0
 12 13  1  0
 13  5  2  0
 14 10  1  0
 15 11  1  0
 16  5  1  0
 17 15  1  0
 14 18  1  6
 19 16  2  0
  9 20  1  1
 21  2  2  0
 22  3  2  0
 23  4  2  0
 24  7  2  0
 25 17  2  0
 15 26  1  6
 27  2  1  0
 28  1  1  0
 29 17  1  0
 30 41  1  0
 31 40  1  0
 32  8  1  0
 33 28  1  0
 34 16  1  0
 35 26  1  0
 36 20  1  0
 37 20  1  0
 38 20  1  0
 39 19  1  0
 40 45  1  0
 41 44  1  0
 42 27  1  0
 43 27  1  0
 44 47  1  0
 45 46  1  0
 46 43  1  0
 47 42  1  0
 48 35  1  0
 49 35  1  0
 50 34  2  0
 51 50  1  0
 33 32  1  0
 19 12  1  0
 39 51  2  0
M  END

> <chembl_id>
CHEMBL6505

> <chembl_pref_name>
None

$$$$

     RDKit          2D

 59 61  0  0  0  0  0  0  0  0999 V2000
   -3.7975   -9.4284    0.0000 C   0  0  0  0  0  0  0  0  0  0  0  0
   -3.0851   -9.8457    0.0000 C   0  0  0  0  0  0  0  0  0  0  0  0
   -3.7956   -8.6027    0.0000 C   0  0  0  0  0  0  0  0  0  0  0  0
   -4.5080   -8.1833    0.0000 C   0  0  0  0  0  0  0  0  0  0  0  0
   -4.4998   -7.3575    0.0000 C   0  0  0  0  0  0  0  0  0  0  0  0
   -5.2055   -6.1132    0.0000 C   0  0  0  0  0  0  0  0  0  0  0  0
   -3.0933  -10.6672    0.0000 O   0  0  0  0  0  0  0  0  0  0  0  0
   -1.6551   -9.8503    0.0000 C   0  0  0  0  0  0  0  0  0  0  0  0
   -0.9344   -9.4440    0.0000 C   0  0  0  0  0  0  0  0  0  0  0  0
   -1.6611  -10.6760    0.0000 C   0  0  0  0  0  0  0  0  0  0  0  0
   -2.3775  -11.0886    0.0000 C   0  0  0  0  0  0  0  0  0  0  0  0
   -2.3836  -11.9144    0.0000 C   0  0  0  0  0  0  0  0  0  0  0  0
   -0.9284   -8.6224    0.0000 O   0  0  0  0  0  0  0  0  0  0  0  0
    0.5024   -8.5723    0.0000 C   0  0  0  0  0  0  0  0  0  0  0  0
   -0.1911   -8.1299    0.0000 O   0  0  0  0  0  0  0  0  0  0  0  0
    1.9284   -8.6328    0.0000 C   0  0  0  0  0  0  0  0  0  0  0  0
    2.6644   -8.2494    0.0000 C   0  0  0  0  0  0  0  0  0  0  0  0
    1.8923   -9.4565    0.0000 C   0  0  0  0  0  0  0  0  0  0  0  0
    2.5858   -9.9031    0.0000 C   0  0  0  0  0  0  0  0  0  0  0  0
    2.7047   -7.4257    0.0000 O   0  0  0  0  0  0  0  0  0  0  0  0
    4.0913   -8.3203    0.0000 C   0  0  0  0  0  0  0  0  0  0  0  0
    4.7848   -8.7669    0.0000 C   0  0  0  0  0  0  0  0  0  0  0  0
    4.1337   -7.4966    0.0000 C   0  0  0  0  0  0  0  0  0  0  0  0
    4.7486   -9.5906    0.0000 O   0  0  0  0  0  0  0  0  0  0  0  0
    6.2100   -8.8322    0.0000 C   0  0  0  0  0  0  0  0  0  0  0  0
    6.9438   -8.4550    0.0000 C   0  0  0  0  0  0  0  0  0  0  0  0
    6.1738   -9.6558    0.0000 C   0  0  0  0  0  0  0  0  0  0  0  0
    6.8674  -10.1024    0.0000 C   0  0  0  0  0  0  0  0  0  0  0  0
    6.8665  -10.9277    0.0000 C   0  0  0  0  0  0  0  0  0  0  0  0
    7.6012   -9.7254    0.0000 C   0  0  0  0  0  0  0  0  0  0  0  0
    6.9863   -7.6314    0.0000 O   0  0  0  0  0  0  0  0  0  0  0  0
    0.4652   -9.4048    0.0000 C   0  0  0  0  0  0  0  0  0  0  0  0
   -0.2250   -9.8629    0.0000 N   0  0  0  0  0  0  0  0  0  0  0  0
   -0.0010  -10.6796    0.0000 C   0  0  0  0  0  0  0  0  0  0  0  0
    0.8303  -10.6796    0.0000 C   0  0  0  0  0  0  0  0  0  0  0  0
    1.1166   -9.9178    0.0000 C   0  0  0  0  0  0  0  0  0  0  0  0
   -3.0989  -12.3220    0.0000 C   0  0  0  0  0  0  0  0  0  0  0  0
    3.3515   -9.6002    0.0000 C   0  0  0  0  0  0  0  0  0  0  0  0
    3.4298  -10.9323    0.0000 C   0  0  0  0  0  0  0  0  0  0  0  0
    2.6335  -10.7261    0.0000 C   0  0  0  0  0  0  0  0  0  0  0  0
    2.0559  -11.3053    0.0000 C   0  0  0  0  0  0  0  0  0  0  0  0
    2.2705  -12.0995    0.0000 C   0  0  0  0  0  0  0  0  0  0  0  0
    3.0668  -12.3098    0.0000 C   0  0  0  0  0  0  0  0  0  0  0  0
    3.6486  -11.7258    0.0000 C   0  0  0  0  0  0  0  0  0  0  0  0
    4.1277   -6.6657    0.0000 C   0  0  0  0  0  0  0  0  0  0  0  0
    4.9592   -7.5107    0.0000 C   0  0  0  0  0  0  0  0  0  0  0  0
    3.3081   -7.4802    0.0000 C   0  0  0  0  0  0  0  0  0  0  0  0
   -5.2298   -9.4146    0.0000 C   0  0  0  0  0  0  0  0  0  0  0  0
   -4.5176   -9.8310    0.0000 N   0  0  0  0  0  0  0  0  0  0  0  0
   -5.2103   -6.9382    0.0000 N   0  0  0  0  0  0  0  0  0  0  0  0
   -5.9230   -5.6968    0.0000 N   0  0  0  0  0  0  0  0  0  0  0  0
   -4.4899   -5.7014    0.0000 N   0  0  0  0  0  0  0  0  0  0  0  0
   -2.3688   -9.4364    0.0000 N   0  0  0  0  0  0  0  0  0  0  0  0
    1.2329   -8.1890    0.0000 N   0  0  0  0  0  0  0  0  0  0  0  0
    3.3574   -8.6971    0.0000 N   0  0  0  0  0  0  0  0  0  0  0  0
    5.5163   -8.3855    0.0000 N   0  0  0  0  0  0  0  0  0  0  0  0
    7.6352   -8.9003    0.0000 O   0  0  0  0  0  0  0  0  0  0  0  0
   -3.1078  -13.1461    0.0000 N   0  0  0  0  0  0  0  0  0  0  0  0
    3.8751  -10.2378    0.0000 N   0  0  0  0  0  0  0  0  0  0  0  0
  8  9  1  0
  8 10  1  6
 10 11  1  0
 11 12  1  0
  9 33  1  0
  9 13  2  0
 32 14  1  6
 14 15  2  0
 16 17  1  0
 16 18  1  6
 18 19  1  0
 17 20  2  0
 21 22  1  0
 21 23  1  0
 22 24  2  0
 25 26  1  0
 25 27  1  6
 27 28  1  0
 28 29  1  0
 28 30  1  0
 26 31  2  0
 32 33  1  0
 33 34  1  0
 34 35  1  0
 35 36  1  0
 36 32  1  0
 12 37  1  0
 19 40  1  0
 38 19  2  0
 39 40  1  0
 39 44  2  0
 40 41  2  0
 41 42  1  0
 42 43  2  0
 43 44  1  0
 23 45  1  0
 23 46  1  0
 23 47  1  0
  1  2  1  0
  1  3  1  1
  3  4  1  0
  4  5  1  0
  2  7  2  0
 49 48  1  0
 49  1  1  0
 14 54  1  0
 54 16  1  0
  6 51  1  0
 17 55  1  0
 21 55  1  1
 22 56  1  0
 56 25  1  0
  6 52  2  0
 26 57  1  0
  5 50  1  0
 50  6  1  0
 37 58  1  0
 53  8  1  0
  2 53  1  0
 39 59  1  0
 59 38  1  0
M  END

> <chembl_id>
CHEMBL266571

> <chembl_pref_name>
None

$$$$

     RDKit          2D

 17 19  0  0  0  0  0  0  0  0999 V2000
    2.3125   -7.1917    0.0000 C   0  0  0  0  0  0  0  0  0  0  0  0
    1.5917   -6.7792    0.0000 C   0  0  0  0  0  0  0  0  0  0  0  0
    1.5917   -5.9625    0.0000 S   0  0  0  0  0  0  0  0  0  0  0  0
    3.1042   -8.2667    0.0000 S   0  0  0  0  0  0  0  0  0  0  0  0
    2.3167   -8.0167    0.0000 C   0  0  0  0  0  0  0  0  0  0  0  0
    3.5875   -7.6000    0.0000 C   0  0  0  0  0  0  0  0  0  0  0  0
    0.8792   -8.0250    0.0000 N   0  0  0  0  0  0  0  0  0  0  0  0
    3.0917   -6.9292    0.0000 C   0  0  0  0  0  0  0  0  0  0  0  0
    1.0250   -5.3625    0.0000 C   0  0  0  0  0  0  0  0  0  0  0  0
    0.8792   -7.2000    0.0000 C   0  0  0  0  0  0  0  0  0  0  0  0
    1.5917   -8.4375    0.0000 C   0  0  0  0  0  0  0  0  0  0  0  0
   -0.1000   -4.1625    0.0000 C   0  0  0  0  0  0  0  0  0  0  0  0
    0.2292   -5.5542    0.0000 C   0  0  0  0  0  0  0  0  0  0  0  0
    1.2667   -4.5750    0.0000 C   0  0  0  0  0  0  0  0  0  0  0  0
    0.7042   -3.9750    0.0000 C   0  0  0  0  0  0  0  0  0  0  0  0
   -0.3375   -4.9542    0.0000 C   0  0  0  0  0  0  0  0  0  0  0  0
   -0.6708   -3.5667    0.0000 C   0  0  0  0  0  0  0  0  0  0  0  0
  2  1  1  0
  3  2  1  0
  4  5  1  0
  5  1  2  0
  6  8  2  0
  7 11  2  0
  8  1  1  0
  9  3  1  0
 10  2  2  0
 11  5  1  0
 12 15  2  0
 13  9  1  0
 14  9  2  0
 15 14  1  0
 16 13  2  0
 17 12  1  0
  4  6  1  0
 10  7  1  0
 16 12  1  0
M  END

> <chembl_id>
CHEMBL266572

> <chembl_pref_name>
None

$$$$

     RDKit          2D

 32 36  0  0  1  0  0  0  0  0999 V2000
    7.7750   -7.2167    0.0000 C   0  0  0  0  0  0  0  0  0  0  0  0
    7.7750   -6.4292    0.0000 C   0  0  0  0  0  0  0  0  0  0  0  0
    5.6125   -7.6167    0.0000 C   0  0  0  0  0  0  0  0  0  0  0  0
    8.5292   -6.0292    0.0000 C   0  0  0  0  0  0  0  0  0  0  0  0
    8.5292   -5.1667    0.0000 C   0  0  0  0  0  0  0  0  0  0  0  0
    7.0667   -7.6167    0.0000 C   0  0  0  0  0  0  0  0  0  0  0  0
    9.2167   -7.2167    0.0000 C   0  0  0  0  0  0  0  0  0  0  0  0
    9.2167   -6.4292    0.0000 C   0  0  0  0  0  0  0  0  0  0  0  0
    6.3292   -7.2167    0.0000 C   0  0  0  0  0  0  0  0  0  0  0  0
    7.8125   -4.7250    0.0000 C   0  0  0  0  0  0  0  0  0  0  0  0
    5.6125   -8.4750    0.0000 C   0  0  0  0  0  0  0  0  0  0  0  0
    7.0667   -6.0292    0.0000 C   0  0  0  0  0  0  0  0  0  0  0  0
    8.0375   -3.8875    0.0000 C   0  0  0  0  0  0  0  0  0  0  0  0
    6.3292   -6.4292    0.0000 C   0  0  0  0  0  0  0  0  0  0  0  0
    8.9542   -3.8875    0.0000 O   0  0  0  0  0  0  0  0  0  0  0  0
    4.9167   -7.2167    0.0000 C   0  0  0  0  0  0  0  0  0  0  0  0
    7.0667   -8.4750    0.0000 C   0  0  0  0  0  0  0  0  0  0  0  0
    9.2042   -4.6292    0.0000 C   0  0  0  0  0  0  0  0  0  0  0  0
    2.9292   -8.5792    0.0000 C   0  0  0  0  0  0  0  0  0  0  0  0
    9.9042   -6.0375    0.0000 O   0  0  0  0  0  0  0  0  0  0  0  0
    4.9167   -8.8625    0.0000 C   0  0  0  0  0  0  0  0  0  0  0  0
    6.3292   -8.8625    0.0000 C   0  0  0  0  0  0  0  0  0  0  0  0
    7.7750   -8.2042    0.0000 O   0  0  0  0  0  0  0  0  0  0  0  0
    3.5792   -8.8792    0.0000 O   0  0  0  0  0  0  0  0  0  0  0  0
    7.5167   -3.2792    0.0000 O   0  0  0  0  0  0  0  0  0  0  0  0
    4.1667   -8.4750    0.0000 C   0  0  0  0  0  0  0  0  0  0  0  0
    2.3417   -8.9875    0.0000 O   0  0  0  0  0  0  0  0  0  0  0  0
    7.7750   -5.5250    0.0000 C   0  0  0  0  0  0  0  0  0  0  0  0
    4.1667   -7.6167    0.0000 C   0  0  0  0  0  0  0  0  0  0  0  0
    5.6125   -6.7875    0.0000 C   0  0  0  0  0  0  0  0  0  0  0  0
    2.8667   -7.8625    0.0000 C   0  0  0  0  0  0  0  0  0  0  0  0
    9.1167   -5.6792    0.0000 H   0  0  0  0  0  0  0  0  0  0  0  0
  2  1  1  0
  3  9  1  0
  4  2  1  0
  4  5  1  6
  6  1  1  0
  7  1  1  0
  8  7  1  0
  9  6  1  0
 10  5  2  0
 11 22  1  0
 12  2  1  0
 13 10  1  0
 14  9  1  0
 15 18  1  0
 16  3  1  0
 17  6  1  0
 18  5  1  0
 19 24  1  0
 20  8  2  0
 21 11  1  0
 22 17  1  0
 23  1  1  0
 24 26  1  0
 25 13  2  0
 26 21  1  0
 27 19  2  0
 28  2  1  0
 29 16  1  0
 30  3  1  0
 31 19  1  0
  4 32  1  1
  8  4  1  0
 14 12  1  0
 11  3  1  0
 26 29  1  0
 15 13  1  0
M  END

> <chembl_id>
CHEMBL6558

> <chembl_pref_name>
None

$$$$

     RDKit          2D

 21 22  0  0  0  0  0  0  0  0999 V2000
    2.0167   -8.3750    0.0000 C   0  0  0  0  0  0  0  0  0  0  0  0
    2.7292   -7.9542    0.0000 C   0  0  0  0  0  0  0  0  0  0  0  0
    3.4417   -8.3667    0.0000 C   0  0  0  0  0  0  0  0  0  0  0  0
    1.3000   -7.9625    0.0000 C   0  0  0  0  0  0  0  0  0  0  0  0
    0.5875   -8.3750    0.0000 C   0  0  0  0  0  0  0  0  0  0  0  0
    4.1542   -7.9542    0.0000 C   0  0  0  0  0  0  0  0  0  0  0  0
    0.5875   -9.2042    0.0000 C   0  0  0  0  0  0  0  0  0  0  0  0
    2.0167   -9.2042    0.0000 C   0  0  0  0  0  0  0  0  0  0  0  0
    1.3000   -9.6167    0.0000 C   0  0  0  0  0  0  0  0  0  0  0  0
    4.8667   -8.3667    0.0000 C   0  0  0  0  0  0  0  0  0  0  0  0
    4.1500   -7.1292    0.0000 C   0  0  0  0  0  0  0  0  0  0  0  0
   -0.1250   -7.9667    0.0000 F   0  0  0  0  0  0  0  0  0  0  0  0
    5.5792   -7.1250    0.0000 C   0  0  0  0  0  0  0  0  0  0  0  0
    5.5792   -7.9500    0.0000 C   0  0  0  0  0  0  0  0  0  0  0  0
    4.8625   -6.7167    0.0000 C   0  0  0  0  0  0  0  0  0  0  0  0
   -0.1250   -9.6125    0.0000 O   0  0  0  0  0  0  0  0  0  0  0  0
    6.2917   -6.7042    0.0000 O   0  0  0  0  0  0  0  0  0  0  0  0
    2.7250   -7.1292    0.0000 C   0  0  0  0  0  0  0  0  0  0  0  0
    3.4417   -9.1917    0.0000 C   0  0  0  0  0  0  0  0  0  0  0  0
    4.1625   -9.6042    0.0000 C   0  0  0  0  0  0  0  0  0  0  0  0
    2.0042   -6.7250    0.0000 C   0  0  0  0  0  0  0  0  0  0  0  0
  2  1  1  0
  3  2  1  0
  4  1  2  0
  5  4  1  0
  6  3  1  0
  7  9  1  0
  8  1  1  0
  9  8  2  0
 10  6  2  0
 11  6  1  0
 12  5  1  0
 13 15  1  0
 14 10  1  0
 15 11  2  0
 16  7  1  0
 17 13  1  0
 18  2  1  0
 19  3  1  0
 20 19  1  0
 21 18  1  0
  5  7  2  0
 14 13  2  0
M  END

> <chembl_id>
CHEMBL6404

> <chembl_pref_name>
None

$$$$

     RDKit          2D

 15 17  0  0  0  0  0  0  0  0999 V2000
   -0.9208    0.9750    0.0000 C   0  0  0  0  0  0  0  0  0  0  0  0
   -1.3833    0.3083    0.0000 N   0  0  0  0  0  0  0  0  0  0  0  0
   -1.4125    1.6375    0.0000 C   0  0  0  0  0  0  0  0  0  0  0  0
   -2.1958    1.3708    0.0000 C   0  0  0  0  0  0  0  0  0  0  0  0
   -2.1833    0.5458    0.0000 C   0  0  0  0  0  0  0  0  0  0  0  0
    0.2375    1.8333    0.0000 N   0  0  0  0  0  0  0  0  0  0  0  0
   -2.9208    1.7583    0.0000 C   0  0  0  0  0  0  0  0  0  0  0  0
   -0.0958    1.0750    0.0000 C   0  0  0  0  0  0  0  0  0  0  0  0
   -2.8833    0.1125    0.0000 C   0  0  0  0  0  0  0  0  0  0  0  0
   -3.6208    1.3333    0.0000 C   0  0  0  0  0  0  0  0  0  0  0  0
   -1.0958    2.4000    0.0000 C   0  0  0  0  0  0  0  0  0  0  0  0
   -3.6083    0.5125    0.0000 C   0  0  0  0  0  0  0  0  0  0  0  0
   -0.2750    2.5083    0.0000 C   0  0  0  0  0  0  0  0  0  0  0  0
   -4.3458    1.7333    0.0000 O   0  0  0  0  0  0  0  0  0  0  0  0
   -5.0583    1.3083    0.0000 C   0  0  0  0  0  0  0  0  0  0  0  0
  2  1  1  0
  3  1  2  0
  4  3  1  0
  5  2  1  0
  6  8  2  0
  7  4  2  0
  8  1  1  0
  9  5  2  0
 10  7  1  0
 11  3  1  0
 12  9  1  0
 13  6  1  0
 14 10  1  0
 15 14  1  0
  5  4  1  0
 11 13  1  0
 12 10  2  0
M  END

> <chembl_id>
CHEMBL6717

> <chembl_pref_name>
None

$$$$

     RDKit          2D

 23 24  0  0  1  0  0  0  0  0999 V2000
    5.1625   -3.2542    0.0000 C   0  0  0  0  0  0  0  0  0  0  0  0
    4.4500   -3.6792    0.0000 C   0  0  0  0  0  0  0  0  0  0  0  0
    6.6125   -2.2042    0.0000 N   0  0  0  0  0  0  0  0  0  0  0  0
    5.8875   -4.5042    0.0000 C   0  0  0  0  0  0  0  0  0  0  0  0
    5.8875   -3.6792    0.0000 C   0  0  0  0  0  0  0  0  0  0  0  0
    5.1625   -4.9167    0.0000 O   0  0  0  0  0  0  0  0  0  0  0  0
    5.8375   -1.9542    0.0000 C   0  0  0  0  0  0  0  0  0  0  0  0
    4.4500   -4.4917    0.0000 C   0  0  0  0  0  0  0  0  0  0  0  0
    7.2375   -1.6542    0.0000 C   0  0  0  0  0  0  0  0  0  0  0  0
    5.1625   -2.4292    0.0000 N   0  0  0  0  0  0  0  0  0  0  0  0
    1.5875   -2.8542    0.0000 N   0  0  0  0  0  0  0  0  0  0  0  0
    2.3125   -3.2667    0.0000 C   0  0  0  0  0  0  0  0  0  0  0  0
    3.7375   -3.2667    0.0000 C   0  0  0  0  0  0  0  0  0  0  0  0
    7.0625   -0.8542    0.0000 O   0  0  0  0  0  0  0  0  0  0  0  0
    3.7375   -4.9167    0.0000 C   0  0  0  0  0  0  0  0  0  0  0  0
    5.5750   -1.1667    0.0000 N   0  0  0  0  0  0  0  0  0  0  0  0
    3.0250   -3.6792    0.0000 C   0  0  0  0  0  0  0  0  0  0  0  0
    8.0125   -1.9167    0.0000 N   0  0  0  0  0  0  0  0  0  0  0  0
    6.6000   -3.2667    0.0000 O   0  0  0  0  0  0  0  0  0  0  0  0
    3.0250   -4.5042    0.0000 C   0  0  0  0  0  0  0  0  0  0  0  0
    6.6000   -4.9167    0.0000 C   0  0  0  0  0  0  0  0  0  0  0  0
    5.6625   -5.3042    0.0000 C   0  0  0  0  0  0  0  0  0  0  0  0
    4.7750   -0.9917    0.0000 C   0  0  0  0  0  0  0  0  0  0  0  0
  2  1  1  0
  3  7  1  0
  4  5  1  0
  5  1  1  0
  6  4  1  0
  7 10  1  0
  8  2  1  0
  9  3  1  0
 10  1  1  0
 11 12  3  0
 12 17  1  0
 13  2  2  0
 14  9  2  0
 15  8  2  0
 16  7  2  0
 17 13  1  0
 18  9  1  0
  5 19  1  6
 20 17  2  0
 21  4  1  0
 22  4  1  0
 23 16  1  0
  8  6  1  0
 15 20  1  0
M  END

> <chembl_id>
CHEMBL6532

> <chembl_pref_name>
None

$$$$

     RDKit          2D

 33 37  0  0  1  0  0  0  0  0999 V2000
    5.9667   -6.2417    0.0000 C   0  0  0  0  0  0  0  0  0  0  0  0
    5.9667   -5.4542    0.0000 C   0  0  0  0  0  0  0  0  0  0  0  0
    3.8042   -6.6417    0.0000 C   0  0  0  0  0  0  0  0  0  0  0  0
    6.7167   -4.1917    0.0000 C   0  0  0  0  0  0  0  0  0  0  0  0
    5.2542   -6.6417    0.0000 C   0  0  0  0  0  0  0  0  0  0  0  0
    6.7167   -5.0542    0.0000 C   0  0  0  0  0  0  0  0  0  0  0  0
    7.4042   -6.2417    0.0000 C   0  0  0  0  0  0  0  0  0  0  0  0
    4.5167   -6.2417    0.0000 C   0  0  0  0  0  0  0  0  0  0  0  0
    7.4042   -5.4542    0.0000 C   0  0  0  0  0  0  0  0  0  0  0  0
    6.0042   -3.7500    0.0000 C   0  0  0  0  0  0  0  0  0  0  0  0
    3.8042   -7.5000    0.0000 C   0  0  0  0  0  0  0  0  0  0  0  0
    5.2542   -5.0542    0.0000 C   0  0  0  0  0  0  0  0  0  0  0  0
    6.2292   -2.9125    0.0000 C   0  0  0  0  0  0  0  0  0  0  0  0
    1.1167   -7.6042    0.0000 C   0  0  0  0  0  0  0  0  0  0  0  0
    4.5167   -5.4542    0.0000 C   0  0  0  0  0  0  0  0  0  0  0  0
    7.1417   -2.9125    0.0000 O   0  0  0  0  0  0  0  0  0  0  0  0
    3.1125   -6.2417    0.0000 C   0  0  0  0  0  0  0  0  0  0  0  0
    5.2542   -7.5000    0.0000 C   0  0  0  0  0  0  0  0  0  0  0  0
    7.4000   -3.6542    0.0000 C   0  0  0  0  0  0  0  0  0  0  0  0
    1.7667   -7.9042    0.0000 O   0  0  0  0  0  0  0  0  0  0  0  0
    3.1125   -7.8875    0.0000 C   0  0  0  0  0  0  0  0  0  0  0  0
    4.5167   -7.8875    0.0000 C   0  0  0  0  0  0  0  0  0  0  0  0
    5.9667   -7.2292    0.0000 O   0  0  0  0  0  0  0  0  0  0  0  0
    0.5292   -8.0125    0.0000 O   0  0  0  0  0  0  0  0  0  0  0  0
    5.7042   -2.3042    0.0000 O   0  0  0  0  0  0  0  0  0  0  0  0
    2.3542   -7.5000    0.0000 C   0  0  0  0  0  0  0  0  0  0  0  0
    5.9667   -4.5500    0.0000 C   0  0  0  0  0  0  0  0  0  0  0  0
    8.0917   -5.0625    0.0000 O   0  0  0  0  0  0  0  0  0  0  0  0
    2.3542   -6.6417    0.0000 C   0  0  0  0  0  0  0  0  0  0  0  0
    1.0625   -6.8875    0.0000 O   0  0  0  0  0  0  0  0  0  0  0  0
    3.8042   -5.8125    0.0000 C   0  0  0  0  0  0  0  0  0  0  0  0
    0.4167   -6.5792    0.0000 C   0  0  0  0  0  0  0  0  0  0  0  0
    7.3042   -4.7042    0.0000 H   0  0  0  0  0  0  0  0  0  0  0  0
  2  1  1  0
  3  8  1  0
  4  6  1  0
  5  1  1  0
  6  2  1  0
  7  1  1  0
  8  5  1  0
  9  7  1  0
 10  4  2  0
 11 22  1  0
 12  2  1  0
 13 10  1  0
 14 20  1  0
 15  8  1  0
 16 19  1  0
 17  3  1  0
 18  5  1  0
 19  4  1  0
 20 26  1  0
 21 11  1  0
 22 18  1  0
 23  1  1  0
 24 14  2  0
 25 13  2  0
 26 21  1  0
 27  2  1  0
 28  9  1  0
 29 17  1  0
 30 14  1  0
 31  3  1  0
 32 30  1  0
  6 33  1  6
  9  6  1  0
 15 12  1  0
 11  3  1  0
 26 29  1  0
 16 13  1  0
M  END

> <chembl_id>
CHEMBL427969

> <chembl_pref_name>
None

$$$$

     RDKit          2D

 25 27  0  0  0  0  0  0  0  0999 V2000
    4.3250   -3.8875    0.0000 S   0  0  0  0  0  0  0  0  0  0  0  0
    5.0375   -4.3042    0.0000 N   0  0  0  0  0  0  0  0  0  0  0  0
    5.7500   -3.8750    0.0000 C   0  0  0  0  0  0  0  0  0  0  0  0
    4.3250   -3.0542    0.0000 C   0  0  0  0  0  0  0  0  0  0  0  0
    7.1875   -3.8667    0.0000 N   0  0  0  0  0  0  0  0  0  0  0  0
    6.4792   -4.2917    0.0000 C   0  0  0  0  0  0  0  0  0  0  0  0
    3.6042   -2.6417    0.0000 C   0  0  0  0  0  0  0  0  0  0  0  0
    5.7417   -3.0417    0.0000 N   0  0  0  0  0  0  0  0  0  0  0  0
    3.6042   -1.8167    0.0000 C   0  0  0  0  0  0  0  0  0  0  0  0
    2.8792   -1.4000    0.0000 C   0  0  0  0  0  0  0  0  0  0  0  0
    3.4917   -3.8750    0.0000 O   0  0  0  0  0  0  0  0  0  0  0  0
    4.3167   -4.7167    0.0000 O   0  0  0  0  0  0  0  0  0  0  0  0
    7.1875   -3.0292    0.0000 C   0  0  0  0  0  0  0  0  0  0  0  0
    2.8792   -0.5667    0.0000 N   0  0  0  0  0  0  0  0  0  0  0  0
    6.4625   -2.6292    0.0000 C   0  0  0  0  0  0  0  0  0  0  0  0
    6.4792   -5.1167    0.0000 O   0  0  0  0  0  0  0  0  0  0  0  0
    7.8917   -2.6250    0.0000 Br  0  0  0  0  0  0  0  0  0  0  0  0
    5.0417   -2.6417    0.0000 C   0  0  0  0  0  0  0  0  0  0  0  0
    4.3167   -1.3792    0.0000 C   0  0  0  0  0  0  0  0  0  0  0  0
    2.8792   -3.0625    0.0000 C   0  0  0  0  0  0  0  0  0  0  0  0
    2.1667   -1.8167    0.0000 C   0  0  0  0  0  0  0  0  0  0  0  0
    2.1667   -2.6417    0.0000 C   0  0  0  0  0  0  0  0  0  0  0  0
    5.0417   -1.8125    0.0000 C   0  0  0  0  0  0  0  0  0  0  0  0
    3.6042   -0.1542    0.0000 C   0  0  0  0  0  0  0  0  0  0  0  0
    2.1625   -0.1542    0.0000 C   0  0  0  0  0  0  0  0  0  0  0  0
  2  1  1  0
  3  2  1  0
  4  1  1  0
  5  6  2  0
  6  3  1  0
  7  4  1  0
  8  3  2  0
  9  7  2  0
 10  9  1  0
 11  1  2  0
 12  1  2  0
 13 15  2  0
 14 10  1  0
 15  8  1  0
 16  6  1  0
 17 13  1  0
 18  4  2  0
 19 23  2  0
 20  7  1  0
 21 22  1  0
 22 20  2  0
 23 18  1  0
 24 14  1  0
 25 14  1  0
 19  9  1  0
 21 10  2  0
 13  5  1  0
M  END

> <chembl_id>
CHEMBL6647

> <chembl_pref_name>
None

$$$$

     RDKit          2D

 42 46  0  0  0  0  0  0  0  0999 V2000
   12.0000   -8.3375    0.0000 N   0  0  0  0  0  0  0  0  0  0  0  0
    2.1917   -9.1542    0.0000 C   0  0  0  0  0  0  0  0  0  0  0  0
   11.9917   -9.0542    0.0000 C   0  0  0  0  0  0  0  0  0  0  0  0
   10.7542   -8.3292    0.0000 C   0  0  0  0  0  0  0  0  0  0  0  0
   11.3792   -7.9750    0.0000 C   0  0  0  0  0  0  0  0  0  0  0  0
    2.1875   -9.9792    0.0000 C   0  0  0  0  0  0  0  0  0  0  0  0
    0.7625   -9.9792    0.0000 C   0  0  0  0  0  0  0  0  0  0  0  0
   10.7542   -9.0542    0.0000 S   0  0  0  0  0  0  0  0  0  0  0  0
    1.4750   -8.7417    0.0000 C   0  0  0  0  0  0  0  0  0  0  0  0
    1.4750  -10.3917    0.0000 C   0  0  0  0  0  0  0  0  0  0  0  0
    0.7625   -9.1542    0.0000 C   0  0  0  0  0  0  0  0  0  0  0  0
    2.9042   -8.7375    0.0000 O   0  0  0  0  0  0  0  0  0  0  0  0
   10.0417   -7.9167    0.0000 C   0  0  0  0  0  0  0  0  0  0  0  0
    3.6167   -9.1542    0.0000 C   0  0  0  0  0  0  0  0  0  0  0  0
    0.0417  -10.3917    0.0000 O   0  0  0  0  0  0  0  0  0  0  0  0
    2.9042  -10.3917    0.0000 C   0  0  0  0  0  0  0  0  0  0  0  0
   12.5792   -9.6417    0.0000 O   0  0  0  0  0  0  0  0  0  0  0  0
   11.3750   -7.2500    0.0000 O   0  0  0  0  0  0  0  0  0  0  0  0
    4.3292   -9.5667    0.0000 C   0  0  0  0  0  0  0  0  0  0  0  0
    9.3292   -8.3292    0.0000 C   0  0  0  0  0  0  0  0  0  0  0  0
    3.6167   -9.9792    0.0000 C   0  0  0  0  0  0  0  0  0  0  0  0
   -0.6708   -9.9667    0.0000 C   0  0  0  0  0  0  0  0  0  0  0  0
    5.0417   -9.1542    0.0000 N   0  0  0  0  0  0  0  0  0  0  0  0
    7.9042   -9.1542    0.0000 C   0  0  0  0  0  0  0  0  0  0  0  0
    9.3292   -9.1542    0.0000 C   0  0  0  0  0  0  0  0  0  0  0  0
    8.6125   -7.9167    0.0000 C   0  0  0  0  0  0  0  0  0  0  0  0
    1.4667   -7.9167    0.0000 C   0  0  0  0  0  0  0  0  0  0  0  0
    1.4792  -11.2167    0.0000 C   0  0  0  0  0  0  0  0  0  0  0  0
    0.0500   -8.7417    0.0000 C   0  0  0  0  0  0  0  0  0  0  0  0
    8.6167   -9.5667    0.0000 C   0  0  0  0  0  0  0  0  0  0  0  0
    7.9000   -8.3292    0.0000 C   0  0  0  0  0  0  0  0  0  0  0  0
   -1.3833  -10.3750    0.0000 C   0  0  0  0  0  0  0  0  0  0  0  0
    7.1875   -9.5667    0.0000 O   0  0  0  0  0  0  0  0  0  0  0  0
    6.4750   -9.1542    0.0000 C   0  0  0  0  0  0  0  0  0  0  0  0
    4.3375   -8.7417    0.0000 C   0  0  0  0  0  0  0  0  0  0  0  0
    5.7542   -9.5667    0.0000 C   0  0  0  0  0  0  0  0  0  0  0  0
    5.0417   -8.3292    0.0000 C   0  0  0  0  0  0  0  0  0  0  0  0
   -2.0958   -9.9542    0.0000 C   0  0  0  0  0  0  0  0  0  0  0  0
   -1.3875  -11.2000    0.0000 C   0  0  0  0  0  0  0  0  0  0  0  0
   -2.1000  -11.6042    0.0000 C   0  0  0  0  0  0  0  0  0  0  0  0
   -2.8083  -10.3625    0.0000 C   0  0  0  0  0  0  0  0  0  0  0  0
   -2.8208  -11.1875    0.0000 C   0  0  0  0  0  0  0  0  0  0  0  0
  2 12  1  0
  3  1  1  0
  4  5  1  0
  5  1  1  0
  6 16  1  0
  7 10  1  0
  8  3  1  0
  9  2  2  0
 10  6  2  0
 11  9  1  0
 12 14  1  0
 13  4  2  0
 14 19  1  0
 15  7  1  0
 16 21  1  0
 17  3  2  0
 18  5  2  0
 19 23  1  0
 20 13  1  0
 21 14  1  0
 22 15  1  0
 23 36  1  0
 24 31  1  0
 25 20  2  0
 26 20  1  0
 27  9  1  0
 28 10  1  0
 29 11  1  0
 30 25  1  0
 31 26  2  0
 32 22  1  0
 33 24  1  0
 34 33  1  0
 35 14  1  0
 36 34  1  0
 37 23  1  0
 38 32  2  0
 39 32  1  0
 40 39  2  0
 41 38  1  0
 42 40  1  0
  8  4  1  0
 30 24  2  0
  6  2  1  0
  7 11  2  0
 42 41  2  0
M  END

> <chembl_id>
CHEMBL6514

> <chembl_pref_name>
None

$$$$

     RDKit          2D

 34 37  0  0  0  0  0  0  0  0999 V2000
    2.2875   -3.9542    0.0000 C   0  0  0  0  0  0  0  0  0  0  0  0
    1.5917   -3.5417    0.0000 C   0  0  0  0  0  0  0  0  0  0  0  0
    2.2875   -4.7792    0.0000 C   0  0  0  0  0  0  0  0  0  0  0  0
    0.8792   -3.9417    0.0000 N   0  0  0  0  0  0  0  0  0  0  0  0
    1.5792   -5.1792    0.0000 N   0  0  0  0  0  0  0  0  0  0  0  0
    7.2875   -2.6917    0.0000 C   0  0  0  0  0  0  0  0  0  0  0  0
    0.8667   -4.7667    0.0000 C   0  0  0  0  0  0  0  0  0  0  0  0
    3.0000   -3.5292    0.0000 C   0  0  0  0  0  0  0  0  0  0  0  0
    8.0000   -2.2792    0.0000 C   0  0  0  0  0  0  0  0  0  0  0  0
    6.5625   -2.2917    0.0000 C   0  0  0  0  0  0  0  0  0  0  0  0
    3.7125   -3.9417    0.0000 C   0  0  0  0  0  0  0  0  0  0  0  0
    5.8500   -2.7042    0.0000 C   0  0  0  0  0  0  0  0  0  0  0  0
    8.9875   -0.2042    0.0000 N   0  0  0  0  0  0  0  0  0  0  0  0
    9.4167   -1.4542    0.0000 C   0  0  0  0  0  0  0  0  0  0  0  0
    5.8625   -3.5292    0.0000 C   0  0  0  0  0  0  0  0  0  0  0  0
    5.1500   -3.9417    0.0000 N   0  0  0  0  0  0  0  0  0  0  0  0
    3.0000   -5.1917    0.0000 C   0  0  0  0  0  0  0  0  0  0  0  0
    4.4292   -3.5292    0.0000 C   0  0  0  0  0  0  0  0  0  0  0  0
   10.0792   -0.9667    0.0000 S   0  0  0  0  0  0  0  0  0  0  0  0
    7.2875   -3.5167    0.0000 C   0  0  0  0  0  0  0  0  0  0  0  0
    3.7125   -4.7792    0.0000 C   0  0  0  0  0  0  0  0  0  0  0  0
    5.8417   -5.2042    0.0000 C   0  0  0  0  0  0  0  0  0  0  0  0
    8.7125   -2.6917    0.0000 N   0  0  0  0  0  0  0  0  0  0  0  0
    6.5500   -5.6542    0.0000 C   0  0  0  0  0  0  0  0  0  0  0  0
    9.8250   -0.1917    0.0000 C   0  0  0  0  0  0  0  0  0  0  0  0
    8.7542   -0.9792    0.0000 C   0  0  0  0  0  0  0  0  0  0  0  0
    1.5917   -2.7167    0.0000 O   0  0  0  0  0  0  0  0  0  0  0  0
    6.5750   -3.9417    0.0000 C   0  0  0  0  0  0  0  0  0  0  0  0
    7.9917   -1.4542    0.0000 O   0  0  0  0  0  0  0  0  0  0  0  0
    9.4250   -2.2792    0.0000 C   0  0  0  0  0  0  0  0  0  0  0  0
    6.5542   -1.4667    0.0000 F   0  0  0  0  0  0  0  0  0  0  0  0
    5.1500   -4.7667    0.0000 C   0  0  0  0  0  0  0  0  0  0  0  0
    0.1542   -5.1792    0.0000 C   0  0  0  0  0  0  0  0  0  0  0  0
    4.4375   -5.1917    0.0000 C   0  0  0  0  0  0  0  0  0  0  0  0
  2  1  1  0
  3  1  2  0
  4  2  2  0
  5  3  1  0
  6 20  2  0
  7  5  2  0
  8  1  1  0
  9  6  1  0
 10 12  2  0
 11  8  2  0
 12 15  1  0
 13 26  1  0
 14 30  1  0
 15 16  1  0
 16 18  1  0
 17  3  1  0
 18 11  1  0
 19 14  1  0
 20 28  1  0
 21 11  1  0
 22 32  1  0
 23  9  1  0
 24 22  3  0
 25 19  1  0
 26 14  2  0
 27  2  1  0
 28 15  2  0
 29  9  2  0
 30 23  1  0
 31 10  1  0
 32 16  1  0
 33  7  1  0
 34 21  1  0
 17 21  2  0
  4  7  1  0
 10  6  1  0
 25 13  2  0
M  END

> <chembl_id>
CHEMBL266066

> <chembl_pref_name>
None

$$$$

     RDKit          2D

 14 13  0  0  0  0  0  0  0  0999 V2000
    2.3917    0.8375    0.0000 P   0  0  0  0  0  0  0  0  0  0  0  0
    1.5792   -2.6750    0.0000 C   0  0  0  0  0  0  0  0  0  0  0  0
    1.5917    0.6208    0.0000 C   0  0  0  0  0  0  0  0  0  0  0  0
    2.3792    1.6625    0.0000 O   0  0  0  0  0  0  0  0  0  0  0  0
    2.2917   -3.0875    0.0000 N   0  0  0  0  0  0  0  0  0  0  0  0
    3.1042    0.4250    0.0000 O   0  0  0  0  0  0  0  0  0  0  0  0
    3.1042    1.2583    0.0000 O   0  0  0  0  0  0  0  0  0  0  0  0
    1.5792   -1.8500    0.0000 N   0  0  0  0  0  0  0  0  0  0  0  0
    0.8625   -3.0792    0.0000 N   0  0  0  0  0  0  0  0  0  0  0  0
    0.8292    0.9375    0.0000 N   0  0  0  0  0  0  0  0  0  0  0  0
    1.5917   -0.2042    0.0000 C   0  0  0  0  0  0  0  0  0  0  0  0
    2.2875   -3.9125    0.0000 C   0  0  0  0  0  0  0  0  0  0  0  0
    2.3000   -1.4417    0.0000 C   0  0  0  0  0  0  0  0  0  0  0  0
    2.3042   -0.6167    0.0000 C   0  0  0  0  0  0  0  0  0  0  0  0
  2  8  1  0
  3  1  1  0
  4  1  2  0
  5  2  1  0
  6  1  1  0
  7  1  1  0
  8 13  1  0
  9  2  2  0
 10  3  1  0
 11  3  1  0
 12  5  1  0
 13 14  1  0
 14 11  1  0
M  END

> <chembl_id>
CHEMBL6398

> <chembl_pref_name>
None

$$$$

     RDKit          2D

 23 24  0  0  1  0  0  0  0  0999 V2000
    5.4792   -3.2542    0.0000 C   0  0  0  0  0  0  0  0  0  0  0  0
    4.7667   -3.6792    0.0000 C   0  0  0  0  0  0  0  0  0  0  0  0
    6.9292   -2.2042    0.0000 N   0  0  0  0  0  0  0  0  0  0  0  0
    6.1917   -4.5042    0.0000 C   0  0  0  0  0  0  0  0  0  0  0  0
    6.1917   -3.6792    0.0000 C   0  0  0  0  0  0  0  0  0  0  0  0
    5.4792   -4.9167    0.0000 O   0  0  0  0  0  0  0  0  0  0  0  0
    6.1417   -1.9542    0.0000 C   0  0  0  0  0  0  0  0  0  0  0  0
    4.7667   -4.4917    0.0000 C   0  0  0  0  0  0  0  0  0  0  0  0
    5.4792   -2.4292    0.0000 N   0  0  0  0  0  0  0  0  0  0  0  0
    1.9042   -2.8542    0.0000 N   0  0  0  0  0  0  0  0  0  0  0  0
    7.5417   -1.6542    0.0000 C   0  0  0  0  0  0  0  0  0  0  0  0
    2.6167   -3.2667    0.0000 C   0  0  0  0  0  0  0  0  0  0  0  0
    4.0542   -3.2667    0.0000 C   0  0  0  0  0  0  0  0  0  0  0  0
    4.0542   -4.9167    0.0000 C   0  0  0  0  0  0  0  0  0  0  0  0
    5.8917   -1.1667    0.0000 N   0  0  0  0  0  0  0  0  0  0  0  0
    7.3792   -0.8542    0.0000 O   0  0  0  0  0  0  0  0  0  0  0  0
    3.3417   -3.6792    0.0000 C   0  0  0  0  0  0  0  0  0  0  0  0
    6.9167   -3.2667    0.0000 O   0  0  0  0  0  0  0  0  0  0  0  0
    3.3417   -4.5042    0.0000 C   0  0  0  0  0  0  0  0  0  0  0  0
    5.9792   -5.3042    0.0000 C   0  0  0  0  0  0  0  0  0  0  0  0
    6.9042   -4.9167    0.0000 C   0  0  0  0  0  0  0  0  0  0  0  0
    8.3292   -1.9167    0.0000 C   0  0  0  0  0  0  0  0  0  0  0  0
    5.0792   -0.9917    0.0000 C   0  0  0  0  0  0  0  0  0  0  0  0
  2  1  1  0
  3  7  1  0
  4  5  1  0
  5  1  1  0
  6  4  1  0
  7  9  1  0
  8  2  1  0
  9  1  1  0
 10 12  3  0
 11  3  1  0
 12 17  1  0
 13  2  2  0
 14  8  2  0
 15  7  2  0
 16 11  2  0
 17 13  1  0
  5 18  1  6
 19 17  2  0
 20  4  1  0
 21  4  1  0
 22 11  1  0
 23 15  1  0
  8  6  1  0
 14 19  1  0
M  END

> <chembl_id>
CHEMBL269002

> <chembl_pref_name>
None

$$$$

     RDKit          2D

 37 40  0  0  0  0  0  0  0  0999 V2000
    1.5542   -4.3625    0.0000 C   0  0  0  0  0  0  0  0  0  0  0  0
    0.8542   -3.9500    0.0000 C   0  0  0  0  0  0  0  0  0  0  0  0
    1.5542   -5.1875    0.0000 C   0  0  0  0  0  0  0  0  0  0  0  0
    0.1417   -4.3542    0.0000 N   0  0  0  0  0  0  0  0  0  0  0  0
    0.8417   -5.5917    0.0000 N   0  0  0  0  0  0  0  0  0  0  0  0
    6.5500   -3.1042    0.0000 C   0  0  0  0  0  0  0  0  0  0  0  0
    0.1417   -5.1750    0.0000 C   0  0  0  0  0  0  0  0  0  0  0  0
    2.2542   -3.9417    0.0000 C   0  0  0  0  0  0  0  0  0  0  0  0
    7.2625   -2.6875    0.0000 C   0  0  0  0  0  0  0  0  0  0  0  0
    5.8250   -2.7000    0.0000 C   0  0  0  0  0  0  0  0  0  0  0  0
    2.9750   -4.3542    0.0000 C   0  0  0  0  0  0  0  0  0  0  0  0
    5.1125   -3.1125    0.0000 C   0  0  0  0  0  0  0  0  0  0  0  0
    5.1250   -3.9375    0.0000 C   0  0  0  0  0  0  0  0  0  0  0  0
    4.4125   -4.3500    0.0000 N   0  0  0  0  0  0  0  0  0  0  0  0
    2.2542   -5.6000    0.0000 C   0  0  0  0  0  0  0  0  0  0  0  0
   10.8125    0.2083    0.0000 N   0  0  0  0  0  0  0  0  0  0  0  0
    3.6917   -3.9375    0.0000 C   0  0  0  0  0  0  0  0  0  0  0  0
    6.5500   -3.9292    0.0000 C   0  0  0  0  0  0  0  0  0  0  0  0
    2.9750   -5.1875    0.0000 C   0  0  0  0  0  0  0  0  0  0  0  0
    5.1042   -5.6125    0.0000 C   0  0  0  0  0  0  0  0  0  0  0  0
    7.9750   -3.1000    0.0000 N   0  0  0  0  0  0  0  0  0  0  0  0
    5.8125   -6.0625    0.0000 C   0  0  0  0  0  0  0  0  0  0  0  0
   10.1000   -0.2125    0.0000 C   0  0  0  0  0  0  0  0  0  0  0  0
    0.8542   -3.1250    0.0000 O   0  0  0  0  0  0  0  0  0  0  0  0
    5.8375   -4.3500    0.0000 C   0  0  0  0  0  0  0  0  0  0  0  0
    7.2542   -1.8625    0.0000 O   0  0  0  0  0  0  0  0  0  0  0  0
    5.8167   -1.8750    0.0000 F   0  0  0  0  0  0  0  0  0  0  0  0
    9.3875   -0.6292    0.0000 C   0  0  0  0  0  0  0  0  0  0  0  0
    8.6875   -2.6875    0.0000 C   0  0  0  0  0  0  0  0  0  0  0  0
    4.4125   -5.1750    0.0000 C   0  0  0  0  0  0  0  0  0  0  0  0
    9.3875   -1.4500    0.0000 C   0  0  0  0  0  0  0  0  0  0  0  0
    8.6792   -1.8625    0.0000 C   0  0  0  0  0  0  0  0  0  0  0  0
   -0.5833   -5.5875    0.0000 C   0  0  0  0  0  0  0  0  0  0  0  0
    7.9625   -0.6417    0.0000 C   0  0  0  0  0  0  0  0  0  0  0  0
    3.7000   -5.6000    0.0000 C   0  0  0  0  0  0  0  0  0  0  0  0
    8.6750   -0.2167    0.0000 C   0  0  0  0  0  0  0  0  0  0  0  0
    7.9667   -1.4625    0.0000 C   0  0  0  0  0  0  0  0  0  0  0  0
  2  1  1  0
  3  1  2  0
  4  2  2  0
  5  3  1  0
  6 18  2  0
  7  5  2  0
  8  1  1  0
  9  6  1  0
 10 12  2  0
 11  8  2  0
 12 13  1  0
 13 14  1  0
 14 17  1  0
 15  3  1  0
 16 23  3  0
 17 11  1  0
 18 25  1  0
 19 11  1  0
 20 30  1  0
 21  9  1  0
 22 20  3  0
 23 28  1  0
 24  2  1  0
 25 13  2  0
 26  9  2  0
 27 10  1  0
 28 31  1  0
 29 21  1  0
 30 14  1  0
 31 32  2  0
 32 29  1  0
 33  7  1  0
 34 37  2  0
 35 19  1  0
 36 34  1  0
 37 32  1  0
 15 19  2  0
  4  7  1  0
  6 10  1  0
 28 36  2  0
M  END

> <chembl_id>
CHEMBL264095

> <chembl_pref_name>
None

$$$$

     RDKit          2D

 23 25  0  0  0  0  0  0  0  0999 V2000
    4.3125   -3.6542    0.0000 S   0  0  0  0  0  0  0  0  0  0  0  0
    5.0292   -4.0667    0.0000 N   0  0  0  0  0  0  0  0  0  0  0  0
    5.7417   -3.6417    0.0000 C   0  0  0  0  0  0  0  0  0  0  0  0
    7.1792   -3.6375    0.0000 N   0  0  0  0  0  0  0  0  0  0  0  0
    4.3125   -2.8250    0.0000 C   0  0  0  0  0  0  0  0  0  0  0  0
    6.4667   -4.0542    0.0000 C   0  0  0  0  0  0  0  0  0  0  0  0
    5.7292   -2.8125    0.0000 N   0  0  0  0  0  0  0  0  0  0  0  0
    3.5917   -2.4125    0.0000 C   0  0  0  0  0  0  0  0  0  0  0  0
    3.4792   -3.6417    0.0000 O   0  0  0  0  0  0  0  0  0  0  0  0
    4.3125   -4.4792    0.0000 O   0  0  0  0  0  0  0  0  0  0  0  0
    7.1792   -2.8042    0.0000 C   0  0  0  0  0  0  0  0  0  0  0  0
    6.4542   -2.3917    0.0000 C   0  0  0  0  0  0  0  0  0  0  0  0
    3.5917   -1.5792    0.0000 C   0  0  0  0  0  0  0  0  0  0  0  0
    6.4750   -4.8875    0.0000 O   0  0  0  0  0  0  0  0  0  0  0  0
    7.8917   -2.3917    0.0000 Br  0  0  0  0  0  0  0  0  0  0  0  0
    5.0292   -2.4042    0.0000 C   0  0  0  0  0  0  0  0  0  0  0  0
    2.8750   -2.8292    0.0000 C   0  0  0  0  0  0  0  0  0  0  0  0
    5.0292   -1.5792    0.0000 C   0  0  0  0  0  0  0  0  0  0  0  0
    4.3125   -1.1625    0.0000 C   0  0  0  0  0  0  0  0  0  0  0  0
    2.8750   -1.1667    0.0000 C   0  0  0  0  0  0  0  0  0  0  0  0
    7.1917   -5.3000    0.0000 C   0  0  0  0  0  0  0  0  0  0  0  0
    2.1667   -2.4125    0.0000 C   0  0  0  0  0  0  0  0  0  0  0  0
    2.1667   -1.5792    0.0000 C   0  0  0  0  0  0  0  0  0  0  0  0
  2  1  1  0
  3  2  1  0
  4  6  2  0
  5  1  1  0
  6  3  1  0
  7  3  2  0
  8  5  1  0
  9  1  2  0
 10  1  2  0
 11 12  2  0
 12  7  1  0
 13  8  2  0
 14  6  1  0
 15 11  1  0
 16  5  2  0
 17  8  1  0
 18 16  1  0
 19 18  2  0
 20 13  1  0
 21 14  1  0
 22 17  2  0
 23 22  1  0
 19 13  1  0
 23 20  2  0
 11  4  1  0
M  END

> <chembl_id>
CHEMBL6576

> <chembl_pref_name>
None

$$$$

     RDKit          2D

 15 17  0  0  0  0  0  0  0  0999 V2000
   -2.1708    0.4625    0.0000 N   0  0  0  0  0  0  0  0  0  0  0  0
   -1.7083    1.1333    0.0000 C   0  0  0  0  0  0  0  0  0  0  0  0
   -2.1958    1.7958    0.0000 C   0  0  0  0  0  0  0  0  0  0  0  0
   -2.9750    1.5208    0.0000 C   0  0  0  0  0  0  0  0  0  0  0  0
   -2.9625    0.6958    0.0000 C   0  0  0  0  0  0  0  0  0  0  0  0
   -0.5458    1.9875    0.0000 N   0  0  0  0  0  0  0  0  0  0  0  0
   -0.8833    1.2333    0.0000 C   0  0  0  0  0  0  0  0  0  0  0  0
   -3.7000    1.9125    0.0000 C   0  0  0  0  0  0  0  0  0  0  0  0
   -1.8750    2.5583    0.0000 C   0  0  0  0  0  0  0  0  0  0  0  0
   -3.6625    0.2708    0.0000 C   0  0  0  0  0  0  0  0  0  0  0  0
   -3.7208    2.7458    0.0000 O   0  0  0  0  0  0  0  0  0  0  0  0
   -1.0583    2.6583    0.0000 C   0  0  0  0  0  0  0  0  0  0  0  0
   -4.3958    0.6708    0.0000 C   0  0  0  0  0  0  0  0  0  0  0  0
   -4.4083    1.4833    0.0000 C   0  0  0  0  0  0  0  0  0  0  0  0
   -4.4458    3.1458    0.0000 C   0  0  0  0  0  0  0  0  0  0  0  0
  2  1  1  0
  3  2  2  0
  4  5  1  0
  5  1  1  0
  6  7  2  0
  7  2  1  0
  8  4  2  0
  9  3  1  0
 10  5  2  0
 11  8  1  0
 12  6  1  0
 13 10  1  0
 14 13  2  0
 15 11  1  0
  4  3  1  0
 14  8  1  0
  9 12  1  0
M  END

> <chembl_id>
CHEMBL6591

> <chembl_pref_name>
None

$$$$

     RDKit          2D

 15 17  0  0  0  0  0  0  0  0999 V2000
    5.9667    0.3333    0.0000 N   0  0  0  0  0  0  0  0  0  0  0  0
    5.9417    1.6625    0.0000 C   0  0  0  0  0  0  0  0  0  0  0  0
    6.4292    1.0000    0.0000 C   0  0  0  0  0  0  0  0  0  0  0  0
    5.1625    1.3958    0.0000 C   0  0  0  0  0  0  0  0  0  0  0  0
    5.1750    0.5708    0.0000 C   0  0  0  0  0  0  0  0  0  0  0  0
    4.4375    1.7833    0.0000 C   0  0  0  0  0  0  0  0  0  0  0  0
    7.5917    1.8583    0.0000 N   0  0  0  0  0  0  0  0  0  0  0  0
    7.2542    1.1000    0.0000 C   0  0  0  0  0  0  0  0  0  0  0  0
    6.2625    2.4250    0.0000 C   0  0  0  0  0  0  0  0  0  0  0  0
    4.4750    0.1375    0.0000 C   0  0  0  0  0  0  0  0  0  0  0  0
    4.4167    2.6208    0.0000 O   0  0  0  0  0  0  0  0  0  0  0  0
    3.7417    0.5375    0.0000 C   0  0  0  0  0  0  0  0  0  0  0  0
    7.0792    2.5333    0.0000 C   0  0  0  0  0  0  0  0  0  0  0  0
    3.7292    1.3583    0.0000 C   0  0  0  0  0  0  0  0  0  0  0  0
    3.6917    3.0208    0.0000 C   0  0  0  0  0  0  0  0  0  0  0  0
  2  3  2  0
  3  1  1  0
  4  5  1  0
  5  1  1  0
  6  4  2  0
  7  8  1  0
  8  3  1  0
  9  2  1  0
 10  5  2  0
 11  6  1  0
 12 10  1  0
 13  7  1  0
 14 12  2  0
 15 11  1  0
  4  2  1  0
 14  6  1  0
  9 13  1  0
M  END

> <chembl_id>
CHEMBL6586

> <chembl_pref_name>
None

$$$$

     RDKit          2D

 34 37  0  0  0  0  0  0  0  0999 V2000
    2.2875   -3.9417    0.0000 C   0  0  0  0  0  0  0  0  0  0  0  0
    1.5792   -3.5292    0.0000 C   0  0  0  0  0  0  0  0  0  0  0  0
    2.2875   -4.7667    0.0000 C   0  0  0  0  0  0  0  0  0  0  0  0
    0.8750   -3.9375    0.0000 N   0  0  0  0  0  0  0  0  0  0  0  0
    1.5750   -5.1750    0.0000 N   0  0  0  0  0  0  0  0  0  0  0  0
    7.2792   -2.6875    0.0000 C   0  0  0  0  0  0  0  0  0  0  0  0
    0.8625   -4.7542    0.0000 C   0  0  0  0  0  0  0  0  0  0  0  0
    3.0000   -3.5250    0.0000 C   0  0  0  0  0  0  0  0  0  0  0  0
    7.9917   -2.2667    0.0000 C   0  0  0  0  0  0  0  0  0  0  0  0
    6.5542   -2.2792    0.0000 C   0  0  0  0  0  0  0  0  0  0  0  0
    3.7042   -3.9375    0.0000 C   0  0  0  0  0  0  0  0  0  0  0  0
   10.0792   -0.9542    0.0000 N   0  0  0  0  0  0  0  0  0  0  0  0
    5.8417   -2.6917    0.0000 C   0  0  0  0  0  0  0  0  0  0  0  0
    9.4042   -1.4417    0.0000 C   0  0  0  0  0  0  0  0  0  0  0  0
    5.8542   -3.5167    0.0000 C   0  0  0  0  0  0  0  0  0  0  0  0
    5.1292   -3.9292    0.0000 N   0  0  0  0  0  0  0  0  0  0  0  0
    3.0000   -5.1792    0.0000 C   0  0  0  0  0  0  0  0  0  0  0  0
    4.4167   -3.5167    0.0000 C   0  0  0  0  0  0  0  0  0  0  0  0
    7.2792   -3.5125    0.0000 C   0  0  0  0  0  0  0  0  0  0  0  0
    3.7042   -4.7667    0.0000 C   0  0  0  0  0  0  0  0  0  0  0  0
    5.8292   -5.1917    0.0000 C   0  0  0  0  0  0  0  0  0  0  0  0
    8.7417   -0.9667    0.0000 S   0  0  0  0  0  0  0  0  0  0  0  0
    8.7042   -2.6792    0.0000 N   0  0  0  0  0  0  0  0  0  0  0  0
    6.5417   -5.6417    0.0000 C   0  0  0  0  0  0  0  0  0  0  0  0
    1.5875   -2.7042    0.0000 O   0  0  0  0  0  0  0  0  0  0  0  0
    9.8167   -0.1875    0.0000 C   0  0  0  0  0  0  0  0  0  0  0  0
    6.5667   -3.9292    0.0000 C   0  0  0  0  0  0  0  0  0  0  0  0
    8.9917   -0.1917    0.0000 C   0  0  0  0  0  0  0  0  0  0  0  0
    7.9792   -1.4417    0.0000 O   0  0  0  0  0  0  0  0  0  0  0  0
    9.4167   -2.2667    0.0000 C   0  0  0  0  0  0  0  0  0  0  0  0
    6.5417   -1.4542    0.0000 F   0  0  0  0  0  0  0  0  0  0  0  0
    5.1292   -4.7542    0.0000 C   0  0  0  0  0  0  0  0  0  0  0  0
    0.1500   -5.1667    0.0000 C   0  0  0  0  0  0  0  0  0  0  0  0
    4.4292   -5.1792    0.0000 C   0  0  0  0  0  0  0  0  0  0  0  0
  2  1  1  0
  3  1  2  0
  4  2  2  0
  5  3  1  0
  6 19  2  0
  7  5  2  0
  8  1  1  0
  9  6  1  0
 10 13  2  0
 11  8  2  0
 12 14  2  0
 13 15  1  0
 14 30  1  0
 15 16  1  0
 16 18  1  0
 17  3  1  0
 18 11  1  0
 19 27  1  0
 20 11  1  0
 21 32  1  0
 22 14  1  0
 23  9  1  0
 24 21  3  0
 25  2  1  0
 26 12  1  0
 27 15  2  0
 28 22  1  0
 29  9  2  0
 30 23  1  0
 31 10  1  0
 32 16  1  0
 33  7  1  0
 34 20  1  0
 17 20  2  0
  4  7  1  0
 10  6  1  0
 26 28  2  0
M  END

> <chembl_id>
CHEMBL268151

> <chembl_pref_name>
None

$$$$

     RDKit          2D

 13 12  0  0  0  0  0  0  0  0999 V2000
    2.3917    0.8375    0.0000 P   0  0  0  0  0  0  0  0  0  0  0  0
    1.5792   -2.6750    0.0000 C   0  0  0  0  0  0  0  0  0  0  0  0
    1.5917    0.6208    0.0000 C   0  0  0  0  0  0  0  0  0  0  0  0
    2.3792    1.6625    0.0000 O   0  0  0  0  0  0  0  0  0  0  0  0
    2.2917   -3.0875    0.0000 N   0  0  0  0  0  0  0  0  0  0  0  0
    3.1042    0.4250    0.0000 O   0  0  0  0  0  0  0  0  0  0  0  0
    3.1042    1.2583    0.0000 O   0  0  0  0  0  0  0  0  0  0  0  0
    1.5792   -1.8500    0.0000 N   0  0  0  0  0  0  0  0  0  0  0  0
    0.8625   -3.0792    0.0000 N   0  0  0  0  0  0  0  0  0  0  0  0
    0.8292    0.9375    0.0000 N   0  0  0  0  0  0  0  0  0  0  0  0
    1.5917   -0.2042    0.0000 C   0  0  0  0  0  0  0  0  0  0  0  0
    2.3000   -1.4417    0.0000 C   0  0  0  0  0  0  0  0  0  0  0  0
    2.3042   -0.6167    0.0000 C   0  0  0  0  0  0  0  0  0  0  0  0
  2  8  2  0
  3  1  1  0
  4  1  2  0
  5  2  1  0
  6  1  1  0
  7  1  1  0
  8 12  1  0
  9  2  1  0
 10  3  1  0
 11  3  1  0
 12 13  1  0
 13 11  1  0
M  END

> <chembl_id>
CHEMBL6388

> <chembl_pref_name>
None

$$$$

     RDKit          2D

 12 11  0  0  0  0  0  0  0  0999 V2000
    2.3917    0.8375    0.0000 P   0  0  0  0  0  0  0  0  0  0  0  0
    1.5792   -2.6750    0.0000 C   0  0  0  0  0  0  0  0  0  0  0  0
    1.5917    0.6208    0.0000 C   0  0  0  0  0  0  0  0  0  0  0  0
    2.2917   -3.0875    0.0000 N   0  0  0  0  0  0  0  0  0  0  0  0
    2.3792    1.6625    0.0000 O   0  0  0  0  0  0  0  0  0  0  0  0
    1.5792   -1.8500    0.0000 N   0  0  0  0  0  0  0  0  0  0  0  0
    3.1042    1.2583    0.0000 O   0  0  0  0  0  0  0  0  0  0  0  0
    0.8625   -3.0792    0.0000 N   0  0  0  0  0  0  0  0  0  0  0  0
    0.8292    0.9375    0.0000 N   0  0  0  0  0  0  0  0  0  0  0  0
    1.5917   -0.2042    0.0000 C   0  0  0  0  0  0  0  0  0  0  0  0
    2.3000   -1.4417    0.0000 C   0  0  0  0  0  0  0  0  0  0  0  0
    2.3042   -0.6167    0.0000 C   0  0  0  0  0  0  0  0  0  0  0  0
  2  6  2  0
  3  1  1  0
  4  2  1  0
  5  1  2  0
  6 11  1  0
  7  1  1  0
  8  2  1  0
  9  3  1  0
 10  3  1  0
 11 12  1  0
 12 10  1  0
M  END

> <chembl_id>
CHEMBL6401

> <chembl_pref_name>
None

$$$$

     RDKit          2D

 21 23  0  0  0  0  0  0  0  0999 V2000
    5.8514   -2.9850    0.0000 C   0  0  0  0  0  0  0  0  0  0  0  0
    6.8441   -2.0813    0.0000 C   0  0  0  0  0  0  0  0  0  0  0  0
    5.1274   -3.3919    0.0000 C   0  0  0  0  0  0  0  0  0  0  0  0
    6.0198   -2.1691    0.0000 C   0  0  0  0  0  0  0  0  0  0  0  0
    4.4198   -2.9866    0.0000 S   0  0  0  0  0  0  0  0  0  0  0  0
    7.1854   -2.8351    0.0000 S   0  0  0  0  0  0  0  0  0  0  0  0
    6.5720   -3.3931    0.0000 C   0  0  0  0  0  0  0  0  0  0  0  0
    7.2557   -1.3628    0.0000 C   0  0  0  0  0  0  0  0  0  0  0  0
    3.6988   -3.4049    0.0000 C   0  0  0  0  0  0  0  0  0  0  0  0
    5.8542   -4.6398    0.0000 N   0  0  0  0  0  0  0  0  0  0  0  0
    4.4165   -2.1582    0.0000 O   0  0  0  0  0  0  0  0  0  0  0  0
    6.8353   -0.6455    0.0000 O   0  0  0  0  0  0  0  0  0  0  0  0
    5.1378   -4.2245    0.0000 C   0  0  0  0  0  0  0  0  0  0  0  0
    2.9787   -2.9876    0.0000 C   0  0  0  0  0  0  0  0  0  0  0  0
    3.7056   -4.2354    0.0000 C   0  0  0  0  0  0  0  0  0  0  0  0
    8.0862   -1.3560    0.0000 N   0  0  0  0  0  0  0  0  0  0  0  0
    6.5710   -4.2287    0.0000 C   0  0  0  0  0  0  0  0  0  0  0  0
    2.9903   -4.6523    0.0000 C   0  0  0  0  0  0  0  0  0  0  0  0
    2.2635   -3.4044    0.0000 C   0  0  0  0  0  0  0  0  0  0  0  0
    2.2589   -4.2379    0.0000 C   0  0  0  0  0  0  0  0  0  0  0  0
    1.5508   -4.6590    0.0000 C   0  0  0  0  0  0  0  0  0  0  0  0
  2  4  2  0
  3  1  1  0
  4  1  1  0
  5  3  1  0
  6  7  1  0
  7  1  2  0
  8  2  1  0
  9  5  1  0
 10 17  2  0
 11  5  1  0
 12  8  2  0
 13  3  2  0
 14  9  2  0
 15  9  1  0
 16  8  1  0
 17  7  1  0
 18 15  2  0
 19 14  1  0
 20 18  1  0
 21 20  1  0
  6  2  1  0
 13 10  1  0
 19 20  2  0
M  CHG  2   5   1  11  -1
M  END

> <chembl_id>
CHEMBL6320

> <chembl_pref_name>
None

$$$$

     RDKit          2D

 16 17  0  0  0  0  0  0  0  0999 V2000
    3.7542   -5.0167    0.0000 C   0  0  0  0  0  0  0  0  0  0  0  0
    3.2667   -4.3500    0.0000 C   0  0  0  0  0  0  0  0  0  0  0  0
    2.4792   -4.6125    0.0000 C   0  0  0  0  0  0  0  0  0  0  0  0
    3.2750   -5.6875    0.0000 S   0  0  0  0  0  0  0  0  0  0  0  0
    2.4875   -5.4375    0.0000 C   0  0  0  0  0  0  0  0  0  0  0  0
    1.7667   -4.1917    0.0000 C   0  0  0  0  0  0  0  0  0  0  0  0
    4.5792   -5.0125    0.0000 C   0  0  0  0  0  0  0  0  0  0  0  0
    1.0417   -2.9667    0.0000 C   0  0  0  0  0  0  0  0  0  0  0  0
    1.7625   -3.3792    0.0000 S   0  0  0  0  0  0  0  0  0  0  0  0
    1.0542   -5.4417    0.0000 N   0  0  0  0  0  0  0  0  0  0  0  0
    0.3292   -3.3875    0.0000 O   0  0  0  0  0  0  0  0  0  0  0  0
    4.9875   -4.2917    0.0000 O   0  0  0  0  0  0  0  0  0  0  0  0
    1.0375   -2.1417    0.0000 N   0  0  0  0  0  0  0  0  0  0  0  0
    5.0000   -5.7250    0.0000 N   0  0  0  0  0  0  0  0  0  0  0  0
    1.7667   -5.8542    0.0000 C   0  0  0  0  0  0  0  0  0  0  0  0
    1.0542   -4.6167    0.0000 C   0  0  0  0  0  0  0  0  0  0  0  0
  2  1  2  0
  3  2  1  0
  4  1  1  0
  5  4  1  0
  6  3  1  0
  7  1  1  0
  8  9  1  0
  9  6  1  0
 10 15  2  0
 11  8  2  0
 12  7  2  0
 13  8  1  0
 14  7  1  0
 15  5  1  0
 16  6  2  0
  3  5  2  0
 16 10  1  0
M  END

> <chembl_id>
CHEMBL268667

> <chembl_pref_name>
None

$$$$

     RDKit          2D

 21 23  0  0  0  0  0  0  0  0999 V2000
    3.7542   -5.0167    0.0000 C   0  0  0  0  0  0  0  0  0  0  0  0
    3.2667   -4.3500    0.0000 C   0  0  0  0  0  0  0  0  0  0  0  0
    3.2750   -5.6875    0.0000 S   0  0  0  0  0  0  0  0  0  0  0  0
    2.4792   -4.6125    0.0000 C   0  0  0  0  0  0  0  0  0  0  0  0
    2.4875   -5.4375    0.0000 C   0  0  0  0  0  0  0  0  0  0  0  0
    4.5792   -5.0125    0.0000 C   0  0  0  0  0  0  0  0  0  0  0  0
    1.7667   -4.1917    0.0000 C   0  0  0  0  0  0  0  0  0  0  0  0
    1.7625   -3.3792    0.0000 S   0  0  0  0  0  0  0  0  0  0  0  0
    1.0542   -5.4417    0.0000 N   0  0  0  0  0  0  0  0  0  0  0  0
    4.9875   -4.2917    0.0000 O   0  0  0  0  0  0  0  0  0  0  0  0
    5.0000   -5.7250    0.0000 N   0  0  0  0  0  0  0  0  0  0  0  0
    1.7667   -5.8542    0.0000 C   0  0  0  0  0  0  0  0  0  0  0  0
    1.0417   -2.9667    0.0000 C   0  0  0  0  0  0  0  0  0  0  0  0
   -1.0875   -4.2125    0.0000 C   0  0  0  0  0  0  0  0  0  0  0  0
    0.3292   -3.3875    0.0000 C   0  0  0  0  0  0  0  0  0  0  0  0
    1.0542   -4.6167    0.0000 C   0  0  0  0  0  0  0  0  0  0  0  0
   -1.8000   -4.6292    0.0000 Cl  0  0  0  0  0  0  0  0  0  0  0  0
   -0.3708   -4.6167    0.0000 C   0  0  0  0  0  0  0  0  0  0  0  0
   -1.0958   -3.3875    0.0000 C   0  0  0  0  0  0  0  0  0  0  0  0
    0.3417   -4.2042    0.0000 C   0  0  0  0  0  0  0  0  0  0  0  0
   -0.3833   -2.9667    0.0000 C   0  0  0  0  0  0  0  0  0  0  0  0
  2  1  2  0
  3  1  1  0
  4  2  1  0
  5  3  1  0
  6  1  1  0
  7  4  1  0
  8  7  1  0
  9 12  2  0
 10  6  2  0
 11  6  1  0
 12  5  1  0
 13  8  1  0
 14 19  2  0
 15 13  1  0
 16  7  2  0
 17 14  1  0
 18 20  2  0
 19 21  1  0
 20 15  1  0
 21 15  2  0
  4  5  2  0
 16  9  1  0
 18 14  1  0
M  END

> <chembl_id>
CHEMBL269570

> <chembl_pref_name>
None

$$$$

     RDKit          2D

 15 17  0  0  0  0  0  0  0  0999 V2000
    5.9042   -1.7417    0.0000 N   0  0  0  0  0  0  0  0  0  0  0  0
    6.3667   -1.0750    0.0000 C   0  0  0  0  0  0  0  0  0  0  0  0
    5.1042   -1.5042    0.0000 C   0  0  0  0  0  0  0  0  0  0  0  0
    5.8750   -0.4125    0.0000 C   0  0  0  0  0  0  0  0  0  0  0  0
    5.0917   -0.6792    0.0000 C   0  0  0  0  0  0  0  0  0  0  0  0
    4.4042   -1.9375    0.0000 C   0  0  0  0  0  0  0  0  0  0  0  0
    4.3667   -0.2917    0.0000 C   0  0  0  0  0  0  0  0  0  0  0  0
    7.5250   -0.2167    0.0000 N   0  0  0  0  0  0  0  0  0  0  0  0
    3.6792   -1.5375    0.0000 C   0  0  0  0  0  0  0  0  0  0  0  0
    7.1917   -0.9750    0.0000 C   0  0  0  0  0  0  0  0  0  0  0  0
    3.6667   -0.7167    0.0000 C   0  0  0  0  0  0  0  0  0  0  0  0
    6.1917    0.3500    0.0000 C   0  0  0  0  0  0  0  0  0  0  0  0
    2.9750   -1.9625    0.0000 O   0  0  0  0  0  0  0  0  0  0  0  0
    7.0125    0.4583    0.0000 C   0  0  0  0  0  0  0  0  0  0  0  0
    2.9917   -2.7875    0.0000 C   0  0  0  0  0  0  0  0  0  0  0  0
  2  1  1  0
  3  1  1  0
  4  2  2  0
  5  3  1  0
  6  3  2  0
  7  5  2  0
  8 10  1  0
  9  6  1  0
 10  2  1  0
 11  9  2  0
 12  4  1  0
 13  9  1  0
 14  8  1  0
 15 13  1  0
  5  4  1  0
 11  7  1  0
 12 14  1  0
M  END

> <chembl_id>
CHEMBL6310

> <chembl_pref_name>
None

$$$$

     RDKit          2D

 15 17  0  0  0  0  0  0  0  0999 V2000
    5.9667    0.3333    0.0000 N   0  0  0  0  0  0  0  0  0  0  0  0
    6.4292    1.0000    0.0000 C   0  0  0  0  0  0  0  0  0  0  0  0
    5.1750    0.5708    0.0000 C   0  0  0  0  0  0  0  0  0  0  0  0
    5.9417    1.6625    0.0000 C   0  0  0  0  0  0  0  0  0  0  0  0
    5.1625    1.3958    0.0000 C   0  0  0  0  0  0  0  0  0  0  0  0
    4.4750    0.1375    0.0000 C   0  0  0  0  0  0  0  0  0  0  0  0
    7.5917    1.8583    0.0000 N   0  0  0  0  0  0  0  0  0  0  0  0
    7.2542    1.1000    0.0000 C   0  0  0  0  0  0  0  0  0  0  0  0
    6.2625    2.4250    0.0000 C   0  0  0  0  0  0  0  0  0  0  0  0
    4.4375    1.7833    0.0000 C   0  0  0  0  0  0  0  0  0  0  0  0
    4.4917   -0.6792    0.0000 O   0  0  0  0  0  0  0  0  0  0  0  0
    3.7292    1.3583    0.0000 C   0  0  0  0  0  0  0  0  0  0  0  0
    7.0792    2.5333    0.0000 C   0  0  0  0  0  0  0  0  0  0  0  0
    3.7417    0.5375    0.0000 C   0  0  0  0  0  0  0  0  0  0  0  0
    5.2167   -1.0792    0.0000 C   0  0  0  0  0  0  0  0  0  0  0  0
  2  1  1  0
  3  1  1  0
  4  2  2  0
  5  3  1  0
  6  3  2  0
  7  8  1  0
  8  2  1  0
  9  4  1  0
 10  5  2  0
 11  6  1  0
 12 14  2  0
 13  7  1  0
 14  6  1  0
 15 11  1  0
  5  4  1  0
 12 10  1  0
  9 13  1  0
M  END

> <chembl_id>
CHEMBL269571

> <chembl_pref_name>
None

$$$$

     RDKit          2D

 36 39  0  0  0  0  0  0  0  0999 V2000
    0.7042   -4.1625    0.0000 C   0  0  0  0  0  0  0  0  0  0  0  0
    1.4000   -4.5750    0.0000 C   0  0  0  0  0  0  0  0  0  0  0  0
   -0.0208   -4.5667    0.0000 N   0  0  0  0  0  0  0  0  0  0  0  0
    9.9500   -0.4167    0.0000 N   0  0  0  0  0  0  0  0  0  0  0  0
    0.6917   -5.8042    0.0000 N   0  0  0  0  0  0  0  0  0  0  0  0
    1.4000   -5.4000    0.0000 C   0  0  0  0  0  0  0  0  0  0  0  0
   -0.0208   -5.3875    0.0000 C   0  0  0  0  0  0  0  0  0  0  0  0
    7.1042   -2.9000    0.0000 C   0  0  0  0  0  0  0  0  0  0  0  0
    9.2375   -0.8250    0.0000 C   0  0  0  0  0  0  0  0  0  0  0  0
    4.2542   -4.5625    0.0000 N   0  0  0  0  0  0  0  0  0  0  0  0
    4.9500   -5.8250    0.0000 C   0  0  0  0  0  0  0  0  0  0  0  0
    5.6542   -6.2750    0.0000 C   0  0  0  0  0  0  0  0  0  0  0  0
    7.8167   -3.3125    0.0000 N   0  0  0  0  0  0  0  0  0  0  0  0
    2.1125   -4.1542    0.0000 C   0  0  0  0  0  0  0  0  0  0  0  0
   10.6750   -0.8250    0.0000 O   0  0  0  0  0  0  0  0  0  0  0  0
    9.9500    0.4125    0.0000 O   0  0  0  0  0  0  0  0  0  0  0  0
    6.3917   -3.3125    0.0000 C   0  0  0  0  0  0  0  0  0  0  0  0
    4.9625   -4.1500    0.0000 C   0  0  0  0  0  0  0  0  0  0  0  0
    0.7042   -3.3375    0.0000 O   0  0  0  0  0  0  0  0  0  0  0  0
    3.5375   -4.1500    0.0000 C   0  0  0  0  0  0  0  0  0  0  0  0
    2.8250   -4.5667    0.0000 C   0  0  0  0  0  0  0  0  0  0  0  0
    9.2417   -1.6542    0.0000 C   0  0  0  0  0  0  0  0  0  0  0  0
    7.1000   -2.0750    0.0000 O   0  0  0  0  0  0  0  0  0  0  0  0
    2.1125   -5.8125    0.0000 C   0  0  0  0  0  0  0  0  0  0  0  0
    6.3917   -4.1417    0.0000 C   0  0  0  0  0  0  0  0  0  0  0  0
    5.6750   -2.9125    0.0000 C   0  0  0  0  0  0  0  0  0  0  0  0
    5.6792   -4.5625    0.0000 C   0  0  0  0  0  0  0  0  0  0  0  0
    4.9625   -3.3250    0.0000 C   0  0  0  0  0  0  0  0  0  0  0  0
    8.5292   -2.9000    0.0000 C   0  0  0  0  0  0  0  0  0  0  0  0
    4.2542   -5.3875    0.0000 C   0  0  0  0  0  0  0  0  0  0  0  0
    8.5250   -2.0750    0.0000 C   0  0  0  0  0  0  0  0  0  0  0  0
    2.8250   -5.4000    0.0000 C   0  0  0  0  0  0  0  0  0  0  0  0
   -0.7333   -5.8000    0.0000 C   0  0  0  0  0  0  0  0  0  0  0  0
    8.5250   -0.4250    0.0000 C   0  0  0  0  0  0  0  0  0  0  0  0
    7.8042   -0.8417    0.0000 C   0  0  0  0  0  0  0  0  0  0  0  0
    7.8125   -1.6625    0.0000 C   0  0  0  0  0  0  0  0  0  0  0  0
  2  1  1  0
  3  1  2  0
  4  9  1  0
  5  7  2  0
  6  2  2  0
  7  3  1  0
  8 17  1  0
  9 22  1  0
 10 20  1  0
 11 30  1  0
 12 11  3  0
 13  8  1  0
 14  2  1  0
 15  4  1  0
 16  4  2  0
 17 26  1  0
 18 10  1  0
 19  1  1  0
 20 21  1  0
 21 14  2  0
 22 31  2  0
 23  8  2  0
 24  6  1  0
 25 27  1  0
 26 28  2  0
 27 18  2  0
 28 18  1  0
 29 13  1  0
 30 10  1  0
 31 29  1  0
 32 21  1  0
 33  7  1  0
 34 35  1  0
 35 36  2  0
 36 31  1  0
  5  6  1  0
 32 24  2  0
 17 25  2  0
 34  9  2  0
M  CHG  2   4   1  15  -1
M  END

> <chembl_id>
CHEMBL6325

> <chembl_pref_name>
None

$$$$

     RDKit          2D

 19 21  0  0  0  0  0  0  0  0999 V2000
    3.7542   -5.0167    0.0000 C   0  0  0  0  0  0  0  0  0  0  0  0
    3.2667   -4.3500    0.0000 C   0  0  0  0  0  0  0  0  0  0  0  0
    2.4792   -4.6125    0.0000 C   0  0  0  0  0  0  0  0  0  0  0  0
    3.2750   -5.6875    0.0000 S   0  0  0  0  0  0  0  0  0  0  0  0
    2.4875   -5.4375    0.0000 C   0  0  0  0  0  0  0  0  0  0  0  0
    4.5792   -5.0125    0.0000 C   0  0  0  0  0  0  0  0  0  0  0  0
    1.7667   -4.1917    0.0000 C   0  0  0  0  0  0  0  0  0  0  0  0
    1.7625   -3.3792    0.0000 S   0  0  0  0  0  0  0  0  0  0  0  0
    1.0542   -5.4417    0.0000 N   0  0  0  0  0  0  0  0  0  0  0  0
    4.9875   -4.2917    0.0000 O   0  0  0  0  0  0  0  0  0  0  0  0
    5.0000   -5.7250    0.0000 N   0  0  0  0  0  0  0  0  0  0  0  0
    1.7667   -5.8542    0.0000 C   0  0  0  0  0  0  0  0  0  0  0  0
    1.0542   -4.6167    0.0000 C   0  0  0  0  0  0  0  0  0  0  0  0
    1.0417   -2.9667    0.0000 C   0  0  0  0  0  0  0  0  0  0  0  0
    1.0417   -2.1417    0.0000 C   0  0  0  0  0  0  0  0  0  0  0  0
    0.3375   -3.3875    0.0000 C   0  0  0  0  0  0  0  0  0  0  0  0
   -0.3833   -2.9750    0.0000 C   0  0  0  0  0  0  0  0  0  0  0  0
    0.3292   -1.7375    0.0000 C   0  0  0  0  0  0  0  0  0  0  0  0
   -0.3833   -2.1500    0.0000 C   0  0  0  0  0  0  0  0  0  0  0  0
  2  1  2  0
  3  2  1  0
  4  1  1  0
  5  4  1  0
  6  1  1  0
  7  3  1  0
  8  7  1  0
  9 12  2  0
 10  6  2  0
 11  6  1  0
 12  5  1  0
 13  7  2  0
 14  8  1  0
 15 14  1  0
 16 14  1  0
 17 16  1  0
 18 15  1  0
 19 17  1  0
  3  5  2  0
 13  9  1  0
 18 19  1  0
M  END

> <chembl_id>
CHEMBL268099

> <chembl_pref_name>
None

$$$$

     RDKit          2D

 19 21  0  0  0  0  0  0  0  0999 V2000
    3.7542   -5.0167    0.0000 C   0  0  0  0  0  0  0  0  0  0  0  0
    3.2667   -4.3500    0.0000 C   0  0  0  0  0  0  0  0  0  0  0  0
    2.4792   -4.6125    0.0000 C   0  0  0  0  0  0  0  0  0  0  0  0
    3.2750   -5.6875    0.0000 S   0  0  0  0  0  0  0  0  0  0  0  0
    1.0417   -2.9667    0.0000 C   0  0  0  0  0  0  0  0  0  0  0  0
    2.4875   -5.4375    0.0000 C   0  0  0  0  0  0  0  0  0  0  0  0
    1.7625   -3.3792    0.0000 S   0  0  0  0  0  0  0  0  0  0  0  0
    1.7667   -4.1917    0.0000 C   0  0  0  0  0  0  0  0  0  0  0  0
    4.5792   -5.0125    0.0000 C   0  0  0  0  0  0  0  0  0  0  0  0
    0.9542   -2.1542    0.0000 C   0  0  0  0  0  0  0  0  0  0  0  0
    0.2917   -3.3125    0.0000 C   0  0  0  0  0  0  0  0  0  0  0  0
    0.1417   -1.9875    0.0000 O   0  0  0  0  0  0  0  0  0  0  0  0
   -0.2625   -2.7000    0.0000 C   0  0  0  0  0  0  0  0  0  0  0  0
    1.0542   -5.4417    0.0000 N   0  0  0  0  0  0  0  0  0  0  0  0
    4.9875   -4.2917    0.0000 O   0  0  0  0  0  0  0  0  0  0  0  0
    5.0000   -5.7250    0.0000 N   0  0  0  0  0  0  0  0  0  0  0  0
    1.7667   -5.8542    0.0000 C   0  0  0  0  0  0  0  0  0  0  0  0
    1.0542   -4.6167    0.0000 C   0  0  0  0  0  0  0  0  0  0  0  0
    1.5625   -1.5917    0.0000 C   0  0  0  0  0  0  0  0  0  0  0  0
  2  1  2  0
  3  2  1  0
  4  1  1  0
  5  7  1  0
  6  4  1  0
  7  8  1  0
  8  3  1  0
  9  1  1  0
 10  5  2  0
 11  5  1  0
 12 10  1  0
 13 11  2  0
 14 17  2  0
 15  9  2  0
 16  9  1  0
 17  6  1  0
 18  8  2  0
 19 10  1  0
  3  6  2  0
 18 14  1  0
 12 13  1  0
M  END

> <chembl_id>
CHEMBL267938

> <chembl_pref_name>
None

$$$$

     RDKit          2D

 19 21  0  0  0  0  0  0  0  0999 V2000
    1.0417   -2.9667    0.0000 C   0  0  0  0  0  0  0  0  0  0  0  0
    3.7542   -5.0167    0.0000 C   0  0  0  0  0  0  0  0  0  0  0  0
    0.2917   -3.3125    0.0000 S   0  0  0  0  0  0  0  0  0  0  0  0
    3.2667   -4.3500    0.0000 C   0  0  0  0  0  0  0  0  0  0  0  0
    2.4792   -4.6125    0.0000 C   0  0  0  0  0  0  0  0  0  0  0  0
    3.2750   -5.6875    0.0000 S   0  0  0  0  0  0  0  0  0  0  0  0
    0.9542   -2.1542    0.0000 N   0  0  0  0  0  0  0  0  0  0  0  0
    0.1417   -1.9875    0.0000 N   0  0  0  0  0  0  0  0  0  0  0  0
    2.4875   -5.4375    0.0000 C   0  0  0  0  0  0  0  0  0  0  0  0
   -0.2625   -2.7000    0.0000 C   0  0  0  0  0  0  0  0  0  0  0  0
    1.7667   -4.1917    0.0000 C   0  0  0  0  0  0  0  0  0  0  0  0
    4.5792   -5.0125    0.0000 C   0  0  0  0  0  0  0  0  0  0  0  0
    1.7625   -3.3792    0.0000 S   0  0  0  0  0  0  0  0  0  0  0  0
    1.0542   -5.4417    0.0000 N   0  0  0  0  0  0  0  0  0  0  0  0
    4.9875   -4.2917    0.0000 O   0  0  0  0  0  0  0  0  0  0  0  0
    5.0000   -5.7250    0.0000 N   0  0  0  0  0  0  0  0  0  0  0  0
    1.7667   -5.8542    0.0000 C   0  0  0  0  0  0  0  0  0  0  0  0
    1.0542   -4.6167    0.0000 C   0  0  0  0  0  0  0  0  0  0  0  0
   -1.0833   -2.7917    0.0000 C   0  0  0  0  0  0  0  0  0  0  0  0
  2  4  2  0
  3  1  1  0
  4  5  1  0
  5 11  1  0
  6  9  1  0
  7  1  2  0
  8  7  1  0
  9  5  2  0
 10  3  1  0
 11 13  1  0
 12  2  1  0
 13  1  1  0
 14 18  1  0
 15 12  2  0
 16 12  1  0
 17 14  2  0
 18 11  2  0
 19 10  1  0
  8 10  2  0
 17  9  1  0
  6  2  1  0
M  END

> <chembl_id>
CHEMBL268070

> <chembl_pref_name>
None

$$$$

     RDKit          2D

 33 36  0  0  0  0  0  0  0  0999 V2000
    1.5667   -3.7375    0.0000 C   0  0  0  0  0  0  0  0  0  0  0  0
    2.2792   -4.1500    0.0000 C   0  0  0  0  0  0  0  0  0  0  0  0
    0.8542   -4.1417    0.0000 N   0  0  0  0  0  0  0  0  0  0  0  0
    1.5667   -5.3792    0.0000 N   0  0  0  0  0  0  0  0  0  0  0  0
    2.2667   -4.9667    0.0000 C   0  0  0  0  0  0  0  0  0  0  0  0
    0.8542   -4.9625    0.0000 C   0  0  0  0  0  0  0  0  0  0  0  0
    7.9750   -2.4750    0.0000 C   0  0  0  0  0  0  0  0  0  0  0  0
    5.1250   -4.1292    0.0000 N   0  0  0  0  0  0  0  0  0  0  0  0
    5.8250   -5.4000    0.0000 C   0  0  0  0  0  0  0  0  0  0  0  0
    6.5250   -5.8417    0.0000 C   0  0  0  0  0  0  0  0  0  0  0  0
    8.6875   -2.8792    0.0000 N   0  0  0  0  0  0  0  0  0  0  0  0
    2.9792   -3.7292    0.0000 C   0  0  0  0  0  0  0  0  0  0  0  0
    7.2625   -2.8917    0.0000 C   0  0  0  0  0  0  0  0  0  0  0  0
    5.8375   -3.7167    0.0000 C   0  0  0  0  0  0  0  0  0  0  0  0
    1.5792   -2.9125    0.0000 O   0  0  0  0  0  0  0  0  0  0  0  0
    4.4125   -3.7250    0.0000 C   0  0  0  0  0  0  0  0  0  0  0  0
    3.7000   -4.1417    0.0000 C   0  0  0  0  0  0  0  0  0  0  0  0
    7.9750   -1.6500    0.0000 O   0  0  0  0  0  0  0  0  0  0  0  0
    2.9792   -5.3792    0.0000 C   0  0  0  0  0  0  0  0  0  0  0  0
    6.5417   -2.4792    0.0000 C   0  0  0  0  0  0  0  0  0  0  0  0
    7.2625   -3.7167    0.0000 C   0  0  0  0  0  0  0  0  0  0  0  0
    5.8292   -2.9000    0.0000 C   0  0  0  0  0  0  0  0  0  0  0  0
    6.5500   -4.1292    0.0000 C   0  0  0  0  0  0  0  0  0  0  0  0
    9.4000   -2.4667    0.0000 C   0  0  0  0  0  0  0  0  0  0  0  0
    5.1250   -4.9542    0.0000 C   0  0  0  0  0  0  0  0  0  0  0  0
    3.7000   -4.9667    0.0000 C   0  0  0  0  0  0  0  0  0  0  0  0
    9.4000   -1.6417    0.0000 C   0  0  0  0  0  0  0  0  0  0  0  0
    0.1292   -5.3667    0.0000 C   0  0  0  0  0  0  0  0  0  0  0  0
   10.1125   -1.2292    0.0000 C   0  0  0  0  0  0  0  0  0  0  0  0
    8.6875   -1.2375    0.0000 C   0  0  0  0  0  0  0  0  0  0  0  0
    8.6750   -0.4167    0.0000 C   0  0  0  0  0  0  0  0  0  0  0  0
   10.1125   -0.4042    0.0000 C   0  0  0  0  0  0  0  0  0  0  0  0
    9.3917    0.0083    0.0000 C   0  0  0  0  0  0  0  0  0  0  0  0
  2  1  1  0
  3  1  2  0
  4  6  2  0
  5  2  2  0
  6  3  1  0
  7 13  1  0
  8 16  1  0
  9 25  1  0
 10  9  3  0
 11  7  1  0
 12  2  1  0
 13 21  2  0
 14  8  1  0
 15  1  1  0
 16 17  1  0
 17 12  2  0
 18  7  2  0
 19  5  1  0
 20 22  2  0
 21 23  1  0
 22 14  1  0
 23 14  2  0
 24 11  1  0
 25  8  1  0
 26 17  1  0
 27 24  1  0
 28  6  1  0
 29 27  2  0
 30 27  1  0
 31 30  2  0
 32 29  1  0
 33 31  1  0
  4  5  1  0
 26 19  2  0
 13 20  1  0
 33 32  2  0
M  END

> <chembl_id>
CHEMBL6829

> <chembl_pref_name>
None

$$$$

     RDKit          2D

 21 23  0  0  0  0  0  0  0  0999 V2000
    3.7542   -5.0167    0.0000 C   0  0  0  0  0  0  0  0  0  0  0  0
    3.2667   -4.3500    0.0000 C   0  0  0  0  0  0  0  0  0  0  0  0
    2.4792   -4.6125    0.0000 C   0  0  0  0  0  0  0  0  0  0  0  0
    3.2750   -5.6875    0.0000 S   0  0  0  0  0  0  0  0  0  0  0  0
    2.4875   -5.4375    0.0000 C   0  0  0  0  0  0  0  0  0  0  0  0
    1.7667   -4.1917    0.0000 C   0  0  0  0  0  0  0  0  0  0  0  0
    1.7625   -3.3792    0.0000 S   0  0  0  0  0  0  0  0  0  0  0  0
    4.5792   -5.0125    0.0000 C   0  0  0  0  0  0  0  0  0  0  0  0
    2.4750   -2.9625    0.0000 C   0  0  0  0  0  0  0  0  0  0  0  0
    2.4667   -2.1417    0.0000 C   0  0  0  0  0  0  0  0  0  0  0  0
    1.0542   -5.4417    0.0000 N   0  0  0  0  0  0  0  0  0  0  0  0
    4.9875   -4.2917    0.0000 O   0  0  0  0  0  0  0  0  0  0  0  0
    3.1750   -1.7250    0.0000 C   0  0  0  0  0  0  0  0  0  0  0  0
    3.1875   -3.3750    0.0000 C   0  0  0  0  0  0  0  0  0  0  0  0
    5.0000   -5.7250    0.0000 N   0  0  0  0  0  0  0  0  0  0  0  0
    1.7667   -5.8542    0.0000 C   0  0  0  0  0  0  0  0  0  0  0  0
    1.0542   -4.6167    0.0000 C   0  0  0  0  0  0  0  0  0  0  0  0
    3.8917   -2.1292    0.0000 C   0  0  0  0  0  0  0  0  0  0  0  0
    3.9000   -2.9625    0.0000 C   0  0  0  0  0  0  0  0  0  0  0  0
    1.7417   -1.7375    0.0000 C   0  0  0  0  0  0  0  0  0  0  0  0
    4.6042   -1.7167    0.0000 C   0  0  0  0  0  0  0  0  0  0  0  0
  2  1  2  0
  3  2  1  0
  4  1  1  0
  5  4  1  0
  6  3  1  0
  7  6  1  0
  8  1  1  0
  9  7  1  0
 10  9  1  0
 11 16  2  0
 12  8  2  0
 13 10  2  0
 14  9  2  0
 15  8  1  0
 16  5  1  0
 17  6  2  0
 18 19  2  0
 19 14  1  0
 20 10  1  0
 21 18  1  0
  3  5  2  0
 17 11  1  0
 13 18  1  0
M  END

> <chembl_id>
CHEMBL6830

> <chembl_pref_name>
None

$$$$

     RDKit          2D

 59 61  0  0  1  0  0  0  0  0999 V2000
    2.0917   -4.4125    0.0000 N   0  0  0  0  0  0  0  0  0  0  0  0
    1.3792   -4.0000    0.0000 C   0  0  0  0  0  0  0  0  0  0  0  0
    3.5042   -4.3667    0.0000 C   0  0  0  0  0  0  0  0  0  0  0  0
    5.6500   -0.8292    0.0000 C   0  0  0  0  0  0  0  0  0  0  0  0
    5.1167   -4.3917    0.0000 C   0  0  0  0  0  0  0  0  0  0  0  0
    4.9375   -2.0042    0.0000 N   0  0  0  0  0  0  0  0  0  0  0  0
    4.2375   -2.3917    0.0000 C   0  0  0  0  0  0  0  0  0  0  0  0
    2.8125   -4.7500    0.0000 C   0  0  0  0  0  0  0  0  0  0  0  0
    4.9500   -1.2167    0.0000 C   0  0  0  0  0  0  0  0  0  0  0  0
    3.5292   -3.5667    0.0000 N   0  0  0  0  0  0  0  0  0  0  0  0
    5.6625   -0.0292    0.0000 N   0  0  0  0  0  0  0  0  0  0  0  0
    4.9167   -5.5417    0.0000 N   0  0  0  0  0  0  0  0  0  0  0  0
    4.5667   -4.8542    0.0000 C   0  0  0  0  0  0  0  0  0  0  0  0
    4.2250   -3.1875    0.0000 C   0  0  0  0  0  0  0  0  0  0  0  0
   -0.2708   -0.7125    0.0000 C   0  0  0  0  0  0  0  0  0  0  0  0
    6.3542    0.3500    0.0000 C   0  0  0  0  0  0  0  0  0  0  0  0
    5.8000   -4.7875    0.0000 C   0  0  0  0  0  0  0  0  0  0  0  0
    4.9042   -3.5917    0.0000 C   0  0  0  0  0  0  0  0  0  0  0  0
    6.3750    1.1458    0.0000 C   0  0  0  0  0  0  0  0  0  0  0  0
    5.6750   -5.5042    0.0000 C   0  0  0  0  0  0  0  0  0  0  0  0
    4.2750   -0.8042    0.0000 C   0  0  0  0  0  0  0  0  0  0  0  0
   -1.0708   -0.5000    0.0000 N   0  0  0  0  0  0  0  0  0  0  0  0
   -0.0583   -4.0000    0.0000 N   0  0  0  0  0  0  0  0  0  0  0  0
    1.3792   -3.1667    0.0000 O   0  0  0  0  0  0  0  0  0  0  0  0
    4.1917   -4.7792    0.0000 O   0  0  0  0  0  0  0  0  0  0  0  0
    6.3250   -1.2417    0.0000 O   0  0  0  0  0  0  0  0  0  0  0  0
    0.6542   -4.4125    0.0000 C   0  0  0  0  0  0  0  0  0  0  0  0
    3.5542   -1.9792    0.0000 O   0  0  0  0  0  0  0  0  0  0  0  0
    5.6917    1.5583    0.0000 O   0  0  0  0  0  0  0  0  0  0  0  0
    7.0417   -0.0542    0.0000 C   0  0  0  0  0  0  0  0  0  0  0  0
   -0.0583   -1.5125    0.0000 N   0  0  0  0  0  0  0  0  0  0  0  0
    0.3125   -0.1292    0.0000 N   0  0  0  0  0  0  0  0  0  0  0  0
    1.5500   -4.9917    0.0000 C   0  0  0  0  0  0  0  0  0  0  0  0
   -0.7750   -4.4125    0.0000 C   0  0  0  0  0  0  0  0  0  0  0  0
    7.0667    1.5250    0.0000 O   0  0  0  0  0  0  0  0  0  0  0  0
   -2.2083   -4.4042    0.0000 N   0  0  0  0  0  0  0  0  0  0  0  0
    2.0917   -7.7292    0.0000 N   0  0  0  0  0  0  0  0  0  0  0  0
    2.7167   -5.5375    0.0000 C   0  0  0  0  0  0  0  0  0  0  0  0
    1.9292   -5.6875    0.0000 C   0  0  0  0  0  0  0  0  0  0  0  0
    6.5167   -4.6000    0.0000 C   0  0  0  0  0  0  0  0  0  0  0  0
   -1.4958   -4.0000    0.0000 C   0  0  0  0  0  0  0  0  0  0  0  0
    7.7375    0.3250    0.0000 C   0  0  0  0  0  0  0  0  0  0  0  0
    4.3792    0.2083    0.0000 C   0  0  0  0  0  0  0  0  0  0  0  0
    3.2917   -1.2917    0.0000 C   0  0  0  0  0  0  0  0  0  0  0  0
    3.2292    0.1083    0.0000 C   0  0  0  0  0  0  0  0  0  0  0  0
    6.2750   -6.0250    0.0000 C   0  0  0  0  0  0  0  0  0  0  0  0
   -0.7750   -1.9250    0.0000 C   0  0  0  0  0  0  0  0  0  0  0  0
    0.6542   -5.2417    0.0000 C   0  0  0  0  0  0  0  0  0  0  0  0
    2.0917   -6.9000    0.0000 C   0  0  0  0  0  0  0  0  0  0  0  0
    7.0875    2.3500    0.0000 C   0  0  0  0  0  0  0  0  0  0  0  0
   -1.4958   -3.1667    0.0000 C   0  0  0  0  0  0  0  0  0  0  0  0
   -0.7750   -2.7542    0.0000 C   0  0  0  0  0  0  0  0  0  0  0  0
    1.3792   -6.4875    0.0000 C   0  0  0  0  0  0  0  0  0  0  0  0
    1.3792   -5.6542    0.0000 C   0  0  0  0  0  0  0  0  0  0  0  0
    7.7750    1.1000    0.0000 C   0  0  0  0  0  0  0  0  0  0  0  0
    8.4167   -0.0875    0.0000 C   0  0  0  0  0  0  0  0  0  0  0  0
    7.8125    2.7500    0.0000 C   0  0  0  0  0  0  0  0  0  0  0  0
    7.1167   -5.1167    0.0000 C   0  0  0  0  0  0  0  0  0  0  0  0
    6.9917   -5.8292    0.0000 C   0  0  0  0  0  0  0  0  0  0  0  0
  2  1  1  0
  8  3  1  1
  4  9  1  0
  5 18  1  0
  6  7  1  0
  7 14  1  0
  8  1  1  0
  9  6  1  0
 10  3  1  0
 11  4  1  0
 12 13  1  0
 13  5  2  0
 14 10  1  0
 15 31  2  0
 16 11  1  0
 17  5  1  0
 14 18  1  6
 19 16  1  0
 20 17  2  0
  9 21  1  1
 22 15  1  0
 23 27  1  0
 24  2  2  0
 25  3  2  0
 26  4  2  0
 27  2  1  0
 28  7  2  0
 29 19  2  0
 16 30  1  6
 31 47  1  0
 32 15  1  0
 33  1  1  0
 34 23  1  0
 35 19  1  0
 36 41  1  0
 37 49  1  0
 38  8  1  0
 39 33  1  0
 40 17  1  0
 41 34  1  0
 42 30  1  0
 43 21  1  0
 44 21  1  0
 45 21  1  0
 46 20  1  0
 47 52  1  0
 27 48  1  6
 49 53  1  0
 50 35  1  0
 41 51  1  1
 52 51  1  0
 53 54  1  0
 54 48  1  0
 55 42  1  0
 56 42  1  0
 57 50  1  0
 58 40  2  0
 59 58  1  0
 39 38  1  0
 20 12  1  0
 46 59  2  0
M  END

> <chembl_id>
CHEMBL268600

> <chembl_pref_name>
None

$$$$

     RDKit          2D

 57 59  0  0  1  0  0  0  0  0999 V2000
    2.0375   -4.3917    0.0000 N   0  0  0  0  0  0  0  0  0  0  0  0
    1.3250   -3.9792    0.0000 C   0  0  0  0  0  0  0  0  0  0  0  0
    3.4542   -4.3417    0.0000 C   0  0  0  0  0  0  0  0  0  0  0  0
    5.5917   -0.8042    0.0000 C   0  0  0  0  0  0  0  0  0  0  0  0
    5.0625   -4.3667    0.0000 C   0  0  0  0  0  0  0  0  0  0  0  0
    4.8792   -1.9875    0.0000 N   0  0  0  0  0  0  0  0  0  0  0  0
    4.1792   -2.3667    0.0000 C   0  0  0  0  0  0  0  0  0  0  0  0
    2.7542   -4.7292    0.0000 C   0  0  0  0  0  0  0  0  0  0  0  0
    4.8917   -1.1917    0.0000 C   0  0  0  0  0  0  0  0  0  0  0  0
    3.4750   -3.5500    0.0000 N   0  0  0  0  0  0  0  0  0  0  0  0
    5.6042   -0.0125    0.0000 N   0  0  0  0  0  0  0  0  0  0  0  0
    4.8625   -5.5167    0.0000 N   0  0  0  0  0  0  0  0  0  0  0  0
    4.5125   -4.8292    0.0000 C   0  0  0  0  0  0  0  0  0  0  0  0
    4.1667   -3.1667    0.0000 C   0  0  0  0  0  0  0  0  0  0  0  0
    6.3042    0.3708    0.0000 C   0  0  0  0  0  0  0  0  0  0  0  0
    5.7417   -4.7667    0.0000 C   0  0  0  0  0  0  0  0  0  0  0  0
    4.8500   -3.5750    0.0000 C   0  0  0  0  0  0  0  0  0  0  0  0
    6.3167    1.1708    0.0000 C   0  0  0  0  0  0  0  0  0  0  0  0
    5.6167   -5.4792    0.0000 C   0  0  0  0  0  0  0  0  0  0  0  0
    4.2167   -0.7792    0.0000 C   0  0  0  0  0  0  0  0  0  0  0  0
   -0.1083   -3.9792    0.0000 N   0  0  0  0  0  0  0  0  0  0  0  0
    1.3250   -3.1500    0.0000 O   0  0  0  0  0  0  0  0  0  0  0  0
    4.1375   -4.7542    0.0000 O   0  0  0  0  0  0  0  0  0  0  0  0
    6.2667   -1.2167    0.0000 O   0  0  0  0  0  0  0  0  0  0  0  0
    0.6042   -4.3917    0.0000 C   0  0  0  0  0  0  0  0  0  0  0  0
    3.5042   -1.9542    0.0000 O   0  0  0  0  0  0  0  0  0  0  0  0
    5.6417    1.5750    0.0000 O   0  0  0  0  0  0  0  0  0  0  0  0
    6.9875   -0.0292    0.0000 C   0  0  0  0  0  0  0  0  0  0  0  0
    1.4917   -4.9667    0.0000 C   0  0  0  0  0  0  0  0  0  0  0  0
   -0.8333   -4.3917    0.0000 C   0  0  0  0  0  0  0  0  0  0  0  0
    7.0167    1.5458    0.0000 O   0  0  0  0  0  0  0  0  0  0  0  0
   -2.2625   -4.3917    0.0000 N   0  0  0  0  0  0  0  0  0  0  0  0
   -0.1083   -0.6625    0.0000 N   0  0  0  0  0  0  0  0  0  0  0  0
    2.0417   -7.7042    0.0000 N   0  0  0  0  0  0  0  0  0  0  0  0
    2.6625   -5.5167    0.0000 C   0  0  0  0  0  0  0  0  0  0  0  0
    1.8792   -5.6667    0.0000 C   0  0  0  0  0  0  0  0  0  0  0  0
    6.4667   -4.5792    0.0000 C   0  0  0  0  0  0  0  0  0  0  0  0
   -1.5458   -3.9792    0.0000 C   0  0  0  0  0  0  0  0  0  0  0  0
    7.6792    0.3458    0.0000 C   0  0  0  0  0  0  0  0  0  0  0  0
    4.3292    0.2333    0.0000 C   0  0  0  0  0  0  0  0  0  0  0  0
    3.2417   -1.2750    0.0000 C   0  0  0  0  0  0  0  0  0  0  0  0
    3.1792    0.1250    0.0000 C   0  0  0  0  0  0  0  0  0  0  0  0
    6.2167   -6.0042    0.0000 C   0  0  0  0  0  0  0  0  0  0  0  0
    0.6042   -5.2167    0.0000 C   0  0  0  0  0  0  0  0  0  0  0  0
    2.0417   -6.8792    0.0000 C   0  0  0  0  0  0  0  0  0  0  0  0
   -0.1083   -1.4917    0.0000 C   0  0  0  0  0  0  0  0  0  0  0  0
    7.0292    2.3708    0.0000 C   0  0  0  0  0  0  0  0  0  0  0  0
   -1.5458   -3.1500    0.0000 C   0  0  0  0  0  0  0  0  0  0  0  0
    1.3250   -6.4667    0.0000 C   0  0  0  0  0  0  0  0  0  0  0  0
   -0.8333   -1.9042    0.0000 C   0  0  0  0  0  0  0  0  0  0  0  0
    1.3250   -5.6375    0.0000 C   0  0  0  0  0  0  0  0  0  0  0  0
    7.7167    1.1208    0.0000 C   0  0  0  0  0  0  0  0  0  0  0  0
    8.3667   -0.0667    0.0000 C   0  0  0  0  0  0  0  0  0  0  0  0
   -0.8333   -2.7292    0.0000 C   0  0  0  0  0  0  0  0  0  0  0  0
    7.7542    2.7708    0.0000 C   0  0  0  0  0  0  0  0  0  0  0  0
    7.0625   -5.0917    0.0000 C   0  0  0  0  0  0  0  0  0  0  0  0
    6.9417   -5.8125    0.0000 C   0  0  0  0  0  0  0  0  0  0  0  0
  2  1  1  0
  8  3  1  1
  4  9  1  0
  5 17  1  0
  6  7  1  0
  7 14  1  0
  8  1  1  0
  9  6  1  0
 10  3  1  0
 11  4  1  0
 12 13  1  0
 13  5  2  0
 14 10  1  0
 15 11  1  0
 16  5  1  0
 14 17  1  6
 18 15  1  0
 19 16  2  0
  9 20  1  1
 21 25  1  0
 22  2  2  0
 23  3  2  0
 24  4  2  0
 25  2  1  0
 26  7  2  0
 27 18  2  0
 15 28  1  6
 29  1  1  0
 30 21  1  0
 31 18  1  0
 32 38  1  0
 33 46  1  0
 34 45  1  0
 35  8  1  0
 36 29  1  0
 37 16  1  0
 38 30  1  0
 39 28  1  0
 40 20  1  0
 41 20  1  0
 42 20  1  0
 43 19  1  0
 25 44  1  6
 45 49  1  0
 46 50  1  0
 47 31  1  0
 38 48  1  1
 49 51  1  0
 50 54  1  0
 51 44  1  0
 52 39  1  0
 53 39  1  0
 54 48  1  0
 55 47  1  0
 56 37  2  0
 57 56  1  0
 36 35  1  0
 19 12  1  0
 43 57  2  0
M  END

> <chembl_id>
CHEMBL6562

> <chembl_pref_name>
None

$$$$

     RDKit          2D

 31 35  0  0  1  0  0  0  0  0999 V2000
    7.2667   -6.8542    0.0000 C   0  0  0  0  0  0  0  0  0  0  0  0
    7.2667   -6.0667    0.0000 C   0  0  0  0  0  0  0  0  0  0  0  0
    5.1042   -7.2542    0.0000 C   0  0  0  0  0  0  0  0  0  0  0  0
    8.0250   -4.8042    0.0000 C   0  0  0  0  0  0  0  0  0  0  0  0
    6.5625   -7.2542    0.0000 C   0  0  0  0  0  0  0  0  0  0  0  0
    8.0250   -5.6667    0.0000 C   0  0  0  0  0  0  0  0  0  0  0  0
    8.7125   -6.8542    0.0000 C   0  0  0  0  0  0  0  0  0  0  0  0
    5.8250   -6.8542    0.0000 C   0  0  0  0  0  0  0  0  0  0  0  0
    8.7125   -6.0667    0.0000 C   0  0  0  0  0  0  0  0  0  0  0  0
    7.3042   -4.3625    0.0000 C   0  0  0  0  0  0  0  0  0  0  0  0
    5.1042   -8.1125    0.0000 C   0  0  0  0  0  0  0  0  0  0  0  0
    6.5625   -5.6667    0.0000 C   0  0  0  0  0  0  0  0  0  0  0  0
    7.5292   -3.5250    0.0000 C   0  0  0  0  0  0  0  0  0  0  0  0
    5.8250   -6.0667    0.0000 C   0  0  0  0  0  0  0  0  0  0  0  0
    8.4500   -3.5250    0.0000 O   0  0  0  0  0  0  0  0  0  0  0  0
    4.4167   -6.8542    0.0000 C   0  0  0  0  0  0  0  0  0  0  0  0
    6.5625   -8.1125    0.0000 C   0  0  0  0  0  0  0  0  0  0  0  0
    8.7042   -4.2667    0.0000 C   0  0  0  0  0  0  0  0  0  0  0  0
    5.8250   -8.5000    0.0000 C   0  0  0  0  0  0  0  0  0  0  0  0
    7.2667   -7.8417    0.0000 O   0  0  0  0  0  0  0  0  0  0  0  0
    4.4167   -8.5000    0.0000 C   0  0  0  0  0  0  0  0  0  0  0  0
    2.4250   -8.2167    0.0000 C   0  0  0  0  0  0  0  0  0  0  0  0
    7.0125   -2.9167    0.0000 O   0  0  0  0  0  0  0  0  0  0  0  0
    2.3667   -7.5000    0.0000 O   0  0  0  0  0  0  0  0  0  0  0  0
    7.2667   -5.1625    0.0000 C   0  0  0  0  0  0  0  0  0  0  0  0
    9.4000   -5.6750    0.0000 O   0  0  0  0  0  0  0  0  0  0  0  0
    3.6625   -7.2542    0.0000 C   0  0  0  0  0  0  0  0  0  0  0  0
    3.6625   -8.1125    0.0000 C   0  0  0  0  0  0  0  0  0  0  0  0
    5.1042   -6.4250    0.0000 C   0  0  0  0  0  0  0  0  0  0  0  0
    3.0750   -8.5167    0.0000 O   0  0  0  0  0  0  0  0  0  0  0  0
    8.6125   -5.3167    0.0000 H   0  0  0  0  0  0  0  0  0  0  0  0
  2  1  1  0
  3  8  1  0
  4  6  1  0
  5  1  1  0
  6  2  1  0
  7  1  1  0
  8  5  1  0
  9  7  1  0
 10  4  2  0
 11 19  1  0
 12  2  1  0
 13 10  1  0
 14  8  1  0
 15 18  1  0
 16  3  1  0
 17  5  1  0
 18  4  1  0
 19 17  1  0
 20  1  1  0
 21 11  1  0
 22 30  1  0
 23 13  2  0
 24 22  2  0
 25  2  1  0
 26  9  1  0
 27 16  1  0
 28 21  1  0
 29  3  1  0
 30 28  1  0
  6 31  1  6
  9  6  1  0
 14 12  1  0
 11  3  1  0
 15 13  1  0
 28 27  1  0
M  END

> <chembl_id>
CHEMBL6383

> <chembl_pref_name>
None

$$$$

     RDKit          2D

 22 23  0  0  0  0  0  0  0  0999 V2000
    2.0167   -8.3750    0.0000 C   0  0  0  0  0  0  0  0  0  0  0  0
    4.1542   -7.9542    0.0000 C   0  0  0  0  0  0  0  0  0  0  0  0
    3.4417   -8.3667    0.0000 C   0  0  0  0  0  0  0  0  0  0  0  0
    2.7292   -7.9542    0.0000 C   0  0  0  0  0  0  0  0  0  0  0  0
    1.3000   -7.9625    0.0000 C   0  0  0  0  0  0  0  0  0  0  0  0
    4.8667   -8.3667    0.0000 C   0  0  0  0  0  0  0  0  0  0  0  0
    0.5875   -8.3750    0.0000 C   0  0  0  0  0  0  0  0  0  0  0  0
    5.5792   -7.9500    0.0000 C   0  0  0  0  0  0  0  0  0  0  0  0
    0.5875   -9.2042    0.0000 C   0  0  0  0  0  0  0  0  0  0  0  0
    5.5792   -7.1250    0.0000 C   0  0  0  0  0  0  0  0  0  0  0  0
    2.0167   -9.2042    0.0000 C   0  0  0  0  0  0  0  0  0  0  0  0
    4.1500   -7.1292    0.0000 C   0  0  0  0  0  0  0  0  0  0  0  0
    4.8625   -6.7167    0.0000 C   0  0  0  0  0  0  0  0  0  0  0  0
    1.3000   -9.6167    0.0000 C   0  0  0  0  0  0  0  0  0  0  0  0
   -0.1250   -7.9667    0.0000 F   0  0  0  0  0  0  0  0  0  0  0  0
    6.3000   -8.3625    0.0000 F   0  0  0  0  0  0  0  0  0  0  0  0
    6.2917   -6.7042    0.0000 O   0  0  0  0  0  0  0  0  0  0  0  0
   -0.1250   -9.6125    0.0000 O   0  0  0  0  0  0  0  0  0  0  0  0
    2.7250   -7.1292    0.0000 C   0  0  0  0  0  0  0  0  0  0  0  0
    3.4417   -9.1917    0.0000 C   0  0  0  0  0  0  0  0  0  0  0  0
    2.0042   -6.7250    0.0000 C   0  0  0  0  0  0  0  0  0  0  0  0
    4.1625   -9.6042    0.0000 C   0  0  0  0  0  0  0  0  0  0  0  0
  2  3  1  0
  3  4  1  0
  4  1  1  0
  5  1  2  0
  6  2  2  0
  7  5  1  0
  8  6  1  0
  9 14  1  0
 10 13  1  0
 11  1  1  0
 12  2  1  0
 13 12  2  0
 14 11  2  0
 15  7  1  0
 16  8  1  0
 17 10  1  0
 18  9  1  0
 19  4  1  0
 20  3  1  0
 21 19  1  0
 22 20  1  0
  7  9  2  0
  8 10  2  0
M  END

> <chembl_id>
CHEMBL415107

> <chembl_pref_name>
None

$$$$

     RDKit          2D

 21 22  0  0  0  0  0  0  0  0999 V2000
    2.9542   -0.1875    0.0000 C   0  0  0  0  0  0  0  0  0  0  0  0
    3.6667    0.2333    0.0000 C   0  0  0  0  0  0  0  0  0  0  0  0
    4.3875   -0.1792    0.0000 C   0  0  0  0  0  0  0  0  0  0  0  0
    2.2417    0.2250    0.0000 C   0  0  0  0  0  0  0  0  0  0  0  0
    1.5292   -0.1875    0.0000 C   0  0  0  0  0  0  0  0  0  0  0  0
    5.1000    0.2333    0.0000 C   0  0  0  0  0  0  0  0  0  0  0  0
    1.5292   -1.0167    0.0000 C   0  0  0  0  0  0  0  0  0  0  0  0
    2.9542   -1.0167    0.0000 C   0  0  0  0  0  0  0  0  0  0  0  0
    2.2417   -1.4292    0.0000 C   0  0  0  0  0  0  0  0  0  0  0  0
    5.8125   -0.1792    0.0000 C   0  0  0  0  0  0  0  0  0  0  0  0
    5.0917    1.0583    0.0000 C   0  0  0  0  0  0  0  0  0  0  0  0
    0.8167    0.2208    0.0000 I   0  0  0  0  0  0  0  0  0  0  0  0
    6.5250    1.0625    0.0000 C   0  0  0  0  0  0  0  0  0  0  0  0
    6.5250    0.2375    0.0000 C   0  0  0  0  0  0  0  0  0  0  0  0
    5.8000    1.4708    0.0000 C   0  0  0  0  0  0  0  0  0  0  0  0
    0.8167   -1.4250    0.0000 O   0  0  0  0  0  0  0  0  0  0  0  0
    7.2292    1.4833    0.0000 O   0  0  0  0  0  0  0  0  0  0  0  0
    3.6667    1.0583    0.0000 C   0  0  0  0  0  0  0  0  0  0  0  0
    4.3875   -1.0042    0.0000 C   0  0  0  0  0  0  0  0  0  0  0  0
    5.1042   -1.4167    0.0000 C   0  0  0  0  0  0  0  0  0  0  0  0
    2.9500    1.4625    0.0000 C   0  0  0  0  0  0  0  0  0  0  0  0
  2  1  1  0
  3  2  1  0
  4  1  2  0
  5  4  1  0
  6  3  1  0
  7  9  1  0
  8  1  1  0
  9  8  2  0
 10  6  2  0
 11  6  1  0
 12  5  1  0
 13 15  1  0
 14 10  1  0
 15 11  2  0
 16  7  1  0
 17 13  1  0
 18  2  1  0
 19  3  1  0
 20 19  1  0
 21 18  1  0
  5  7  2  0
 14 13  2  0
M  END

> <chembl_id>
CHEMBL267937

> <chembl_pref_name>
None

$$$$

     RDKit          2D

 33 36  0  0  1  0  0  0  0  0999 V2000
    4.3542   -1.8542    0.0000 S   0  0  0  0  0  0  0  0  0  0  0  0
    5.7792   -1.8500    0.0000 C   0  0  0  0  0  0  0  0  0  0  0  0
    6.3292   -1.2542    0.0000 C   0  0  0  0  0  0  0  0  0  0  0  0
    5.0667   -1.4375    0.0000 N   0  0  0  0  0  0  0  0  0  0  0  0
    7.0750   -1.6750    0.0000 N   0  0  0  0  0  0  0  0  0  0  0  0
    3.6417   -1.4417    0.0000 C   0  0  0  0  0  0  0  0  0  0  0  0
    3.6375   -2.2625    0.0000 O   0  0  0  0  0  0  0  0  0  0  0  0
    4.9375   -2.4375    0.0000 O   0  0  0  0  0  0  0  0  0  0  0  0
    2.9250   -1.8542    0.0000 C   0  0  0  0  0  0  0  0  0  0  0  0
    5.7750   -2.6750    0.0000 C   0  0  0  0  0  0  0  0  0  0  0  0
    6.1167   -0.4542    0.0000 O   0  0  0  0  0  0  0  0  0  0  0  0
    2.2125   -1.4417    0.0000 C   0  0  0  0  0  0  0  0  0  0  0  0
    3.6417   -0.6125    0.0000 C   0  0  0  0  0  0  0  0  0  0  0  0
    7.6542   -1.0792    0.0000 C   0  0  0  0  0  0  0  0  0  0  0  0
    2.2125   -0.6167    0.0000 C   0  0  0  0  0  0  0  0  0  0  0  0
    2.9250   -0.2000    0.0000 C   0  0  0  0  0  0  0  0  0  0  0  0
    6.4792   -3.0792    0.0000 C   0  0  0  0  0  0  0  0  0  0  0  0
    7.9625   -3.8167    0.0000 C   0  0  0  0  0  0  0  0  0  0  0  0
    7.1750   -2.6292    0.0000 C   0  0  0  0  0  0  0  0  0  0  0  0
    6.5292   -3.9042    0.0000 C   0  0  0  0  0  0  0  0  0  0  0  0
    8.6667   -5.0542    0.0000 N   0  0  0  0  0  0  0  0  0  0  0  0
    7.9125   -2.9917    0.0000 C   0  0  0  0  0  0  0  0  0  0  0  0
    7.2667   -4.2792    0.0000 C   0  0  0  0  0  0  0  0  0  0  0  0
    7.6542   -2.2542    0.0000 C   0  0  0  0  0  0  0  0  0  0  0  0
    8.6750   -4.2292    0.0000 C   0  0  0  0  0  0  0  0  0  0  0  0
    1.4542   -1.8167    0.0000 C   0  0  0  0  0  0  0  0  0  0  0  0
    8.4625   -1.2542    0.0000 C   0  0  0  0  0  0  0  0  0  0  0  0
    7.5792   -0.2542    0.0000 C   0  0  0  0  0  0  0  0  0  0  0  0
    1.5167   -0.1667    0.0000 C   0  0  0  0  0  0  0  0  0  0  0  0
    0.7542   -1.3875    0.0000 C   0  0  0  0  0  0  0  0  0  0  0  0
    8.8792   -0.5500    0.0000 C   0  0  0  0  0  0  0  0  0  0  0  0
    8.3375    0.0708    0.0000 C   0  0  0  0  0  0  0  0  0  0  0  0
    0.7875   -0.5542    0.0000 C   0  0  0  0  0  0  0  0  0  0  0  0
  2  4  1  0
  3  2  1  0
  4  1  1  0
  5  3  1  0
  6  1  1  0
  7  1  2  0
  8  1  2  0
  9  6  2  0
  2 10  1  6
 11  3  2  0
 12  9  1  0
 13  6  1  0
 14  5  1  0
 15 16  1  0
 16 13  2  0
 17 10  1  0
 18 23  1  0
 19 17  2  0
 20 17  1  0
 21 25  1  0
 22 19  1  0
 23 20  2  0
 24  5  1  0
 25 18  1  0
 26 12  1  0
 27 14  1  0
 28 14  1  0
 29 15  1  0
 30 26  2  0
 31 27  1  0
 32 28  1  0
 33 29  2  0
 12 15  2  0
 30 33  1  0
 18 22  2  0
 32 31  1  0
M  END

> <chembl_id>
CHEMBL266196

> <chembl_pref_name>
None

$$$$

     RDKit          2D

 20 22  0  0  0  0  0  0  0  0999 V2000
    3.4542   -5.2167    0.0000 C   0  0  0  0  0  0  0  0  0  0  0  0
    2.9667   -4.5500    0.0000 C   0  0  0  0  0  0  0  0  0  0  0  0
    2.1792   -4.8125    0.0000 C   0  0  0  0  0  0  0  0  0  0  0  0
    2.9750   -5.8875    0.0000 S   0  0  0  0  0  0  0  0  0  0  0  0
    2.1875   -5.6375    0.0000 C   0  0  0  0  0  0  0  0  0  0  0  0
    4.2792   -5.2125    0.0000 C   0  0  0  0  0  0  0  0  0  0  0  0
    1.4667   -4.4000    0.0000 C   0  0  0  0  0  0  0  0  0  0  0  0
    1.4625   -3.5792    0.0000 S   0  0  0  0  0  0  0  0  0  0  0  0
    4.6917   -4.4917    0.0000 O   0  0  0  0  0  0  0  0  0  0  0  0
    0.8917   -2.9792    0.0000 C   0  0  0  0  0  0  0  0  0  0  0  0
    4.7000   -5.9250    0.0000 N   0  0  0  0  0  0  0  0  0  0  0  0
   -0.2333   -1.7792    0.0000 C   0  0  0  0  0  0  0  0  0  0  0  0
    0.1000   -3.1667    0.0000 C   0  0  0  0  0  0  0  0  0  0  0  0
    1.1375   -2.1917    0.0000 C   0  0  0  0  0  0  0  0  0  0  0  0
    0.5750   -1.5917    0.0000 C   0  0  0  0  0  0  0  0  0  0  0  0
   -0.4708   -2.5750    0.0000 C   0  0  0  0  0  0  0  0  0  0  0  0
    1.4667   -6.0542    0.0000 C   0  0  0  0  0  0  0  0  0  0  0  0
    0.7542   -4.8125    0.0000 C   0  0  0  0  0  0  0  0  0  0  0  0
    0.7542   -5.6417    0.0000 C   0  0  0  0  0  0  0  0  0  0  0  0
   -0.7958   -1.1792    0.0000 C   0  0  0  0  0  0  0  0  0  0  0  0
  2  1  2  0
  3  2  1  0
  4  1  1  0
  5  4  1  0
  6  1  1  0
  7  3  1  0
  8  7  1  0
  9  6  2  0
 10  8  1  0
 11  6  1  0
 12 15  2  0
 13 10  1  0
 14 10  2  0
 15 14  1  0
 16 13  2  0
 17  5  1  0
 18  7  2  0
 19 17  2  0
 20 12  1  0
  3  5  2  0
 18 19  1  0
 16 12  1  0
M  END

> <chembl_id>
CHEMBL6442

> <chembl_pref_name>
None

$$$$

     RDKit          2D

 37 41  0  0  1  0  0  0  0  0999 V2000
    5.9667   -6.2417    0.0000 C   0  0  0  0  0  0  0  0  0  0  0  0
    5.9667   -5.4542    0.0000 C   0  0  0  0  0  0  0  0  0  0  0  0
    3.8042   -6.6417    0.0000 C   0  0  0  0  0  0  0  0  0  0  0  0
    6.7167   -4.1917    0.0000 C   0  0  0  0  0  0  0  0  0  0  0  0
    5.2542   -6.6417    0.0000 C   0  0  0  0  0  0  0  0  0  0  0  0
    6.7167   -5.0542    0.0000 C   0  0  0  0  0  0  0  0  0  0  0  0
    7.4042   -6.2417    0.0000 C   0  0  0  0  0  0  0  0  0  0  0  0
    4.5167   -6.2417    0.0000 C   0  0  0  0  0  0  0  0  0  0  0  0
    7.4042   -5.4542    0.0000 C   0  0  0  0  0  0  0  0  0  0  0  0
    6.0042   -3.7500    0.0000 C   0  0  0  0  0  0  0  0  0  0  0  0
    3.8042   -7.5000    0.0000 C   0  0  0  0  0  0  0  0  0  0  0  0
    5.2542   -5.0542    0.0000 C   0  0  0  0  0  0  0  0  0  0  0  0
    6.2292   -2.9125    0.0000 C   0  0  0  0  0  0  0  0  0  0  0  0
    8.8042   -5.4792    0.0000 C   0  0  0  0  0  0  0  0  0  0  0  0
    1.1167   -7.6042    0.0000 C   0  0  0  0  0  0  0  0  0  0  0  0
    8.0917   -5.0625    0.0000 O   0  0  0  0  0  0  0  0  0  0  0  0
    4.5167   -5.4542    0.0000 C   0  0  0  0  0  0  0  0  0  0  0  0
    7.1417   -2.9125    0.0000 O   0  0  0  0  0  0  0  0  0  0  0  0
    3.1125   -6.2417    0.0000 C   0  0  0  0  0  0  0  0  0  0  0  0
    5.2542   -7.5000    0.0000 C   0  0  0  0  0  0  0  0  0  0  0  0
    7.4000   -3.6542    0.0000 C   0  0  0  0  0  0  0  0  0  0  0  0
    1.7667   -7.9042    0.0000 O   0  0  0  0  0  0  0  0  0  0  0  0
    3.1125   -7.8875    0.0000 C   0  0  0  0  0  0  0  0  0  0  0  0
    4.5167   -7.8875    0.0000 C   0  0  0  0  0  0  0  0  0  0  0  0
    5.9667   -7.2292    0.0000 O   0  0  0  0  0  0  0  0  0  0  0  0
    9.5250   -5.0667    0.0000 O   0  0  0  0  0  0  0  0  0  0  0  0
    0.5292   -8.0125    0.0000 O   0  0  0  0  0  0  0  0  0  0  0  0
    5.7042   -2.3042    0.0000 O   0  0  0  0  0  0  0  0  0  0  0  0
    2.3542   -7.5000    0.0000 C   0  0  0  0  0  0  0  0  0  0  0  0
    5.9667   -4.5500    0.0000 C   0  0  0  0  0  0  0  0  0  0  0  0
    2.3542   -6.6417    0.0000 C   0  0  0  0  0  0  0  0  0  0  0  0
    8.8042   -6.3042    0.0000 O   0  0  0  0  0  0  0  0  0  0  0  0
    1.0625   -6.8875    0.0000 O   0  0  0  0  0  0  0  0  0  0  0  0
    3.8042   -5.8125    0.0000 C   0  0  0  0  0  0  0  0  0  0  0  0
    0.4167   -6.5792    0.0000 C   0  0  0  0  0  0  0  0  0  0  0  0
    8.0917   -6.7125    0.0000 C   0  0  0  0  0  0  0  0  0  0  0  0
    7.3042   -4.7042    0.0000 H   0  0  0  0  0  0  0  0  0  0  0  0
  2  1  1  0
  3  8  1  0
  4  6  1  0
  5  1  1  0
  6  2  1  0
  7  1  1  0
  8  5  1  0
  9  7  1  0
 10  4  2  0
 11 24  1  0
 12  2  1  0
 13 10  1  0
 14 16  1  0
 15 22  1  0
 16  9  1  0
 17  8  1  0
 18 21  1  0
 19  3  1  0
 20  5  1  0
 21  4  1  0
 22 29  1  0
 23 11  1  0
 24 20  1  0
 25  1  1  0
 26 14  2  0
 27 15  2  0
 28 13  2  0
 29 23  1  0
 30  2  1  0
 31 19  1  0
 32 14  1  0
 33 15  1  0
 34  3  1  0
 35 33  1  0
 36 32  1  0
  6 37  1  6
  9  6  1  0
 17 12  1  0
 11  3  1  0
 29 31  1  0
 18 13  1  0
M  END

> <chembl_id>
CHEMBL268149

> <chembl_pref_name>
None

$$$$

     RDKit          2D

 28 30  0  0  0  0  0  0  0  0999 V2000
    1.9167   -2.9250    0.0000 C   0  0  0  0  0  0  0  0  0  0  0  0
    2.6250   -3.3375    0.0000 C   0  0  0  0  0  0  0  0  0  0  0  0
    1.2167   -3.3292    0.0000 N   0  0  0  0  0  0  0  0  0  0  0  0
    1.9167   -4.5667    0.0000 N   0  0  0  0  0  0  0  0  0  0  0  0
    2.6250   -4.1542    0.0000 C   0  0  0  0  0  0  0  0  0  0  0  0
    1.2042   -4.1500    0.0000 C   0  0  0  0  0  0  0  0  0  0  0  0
    8.3292   -1.6625    0.0000 C   0  0  0  0  0  0  0  0  0  0  0  0
    5.4792   -3.3167    0.0000 N   0  0  0  0  0  0  0  0  0  0  0  0
    6.1750   -4.5875    0.0000 C   0  0  0  0  0  0  0  0  0  0  0  0
    6.8750   -5.0292    0.0000 C   0  0  0  0  0  0  0  0  0  0  0  0
    3.3375   -2.9167    0.0000 C   0  0  0  0  0  0  0  0  0  0  0  0
    7.6167   -2.0792    0.0000 C   0  0  0  0  0  0  0  0  0  0  0  0
    6.1917   -2.9042    0.0000 C   0  0  0  0  0  0  0  0  0  0  0  0
    1.9292   -2.1000    0.0000 O   0  0  0  0  0  0  0  0  0  0  0  0
    4.7625   -2.9125    0.0000 C   0  0  0  0  0  0  0  0  0  0  0  0
    4.0500   -3.3292    0.0000 C   0  0  0  0  0  0  0  0  0  0  0  0
    8.3250   -0.8292    0.0000 O   0  0  0  0  0  0  0  0  0  0  0  0
    3.3375   -4.5667    0.0000 C   0  0  0  0  0  0  0  0  0  0  0  0
    7.6167   -2.9042    0.0000 C   0  0  0  0  0  0  0  0  0  0  0  0
    6.9000   -1.6667    0.0000 C   0  0  0  0  0  0  0  0  0  0  0  0
    6.9042   -3.3167    0.0000 C   0  0  0  0  0  0  0  0  0  0  0  0
    6.1875   -2.0875    0.0000 C   0  0  0  0  0  0  0  0  0  0  0  0
    9.0417   -2.0667    0.0000 N   0  0  0  0  0  0  0  0  0  0  0  0
    5.4792   -4.1417    0.0000 C   0  0  0  0  0  0  0  0  0  0  0  0
    4.0500   -4.1542    0.0000 C   0  0  0  0  0  0  0  0  0  0  0  0
    0.4917   -4.5542    0.0000 C   0  0  0  0  0  0  0  0  0  0  0  0
    9.7542   -1.6542    0.0000 C   0  0  0  0  0  0  0  0  0  0  0  0
    9.7500   -0.8292    0.0000 C   0  0  0  0  0  0  0  0  0  0  0  0
  2  1  1  0
  3  1  2  0
  4  6  2  0
  5  2  2  0
  6  3  1  0
  7 12  1  0
  8 15  1  0
  9 24  1  0
 10  9  3  0
 11  2  1  0
 12 20  1  0
 13  8  1  0
 14  1  1  0
 15 16  1  0
 16 11  2  0
 17  7  2  0
 18  5  1  0
 19 21  1  0
 20 22  2  0
 21 13  2  0
 22 13  1  0
 23  7  1  0
 24  8  1  0
 25 16  1  0
 26  6  1  0
 27 23  1  0
 28 27  1  0
  4  5  1  0
 25 18  2  0
 12 19  2  0
M  END

> <chembl_id>
CHEMBL6307

> <chembl_pref_name>
None

$$$$

     RDKit          2D

 22 23  0  0  0  0  0  0  0  0999 V2000
    2.3625   -1.5292    0.0000 C   0  0  0  0  0  0  0  0  0  0  0  0
    4.5042   -1.1042    0.0000 C   0  0  0  0  0  0  0  0  0  0  0  0
    3.7917   -1.5167    0.0000 C   0  0  0  0  0  0  0  0  0  0  0  0
    3.0750   -1.1125    0.0000 C   0  0  0  0  0  0  0  0  0  0  0  0
    1.6417   -1.1167    0.0000 C   0  0  0  0  0  0  0  0  0  0  0  0
    5.2167   -1.5167    0.0000 C   0  0  0  0  0  0  0  0  0  0  0  0
    0.9292   -1.5292    0.0000 C   0  0  0  0  0  0  0  0  0  0  0  0
    5.9292   -1.1042    0.0000 C   0  0  0  0  0  0  0  0  0  0  0  0
    0.9292   -2.3542    0.0000 C   0  0  0  0  0  0  0  0  0  0  0  0
    5.9292   -0.2792    0.0000 C   0  0  0  0  0  0  0  0  0  0  0  0
    2.3625   -2.3542    0.0000 C   0  0  0  0  0  0  0  0  0  0  0  0
    4.4917   -0.2875    0.0000 C   0  0  0  0  0  0  0  0  0  0  0  0
    5.2042    0.1333    0.0000 C   0  0  0  0  0  0  0  0  0  0  0  0
    1.6417   -2.7667    0.0000 C   0  0  0  0  0  0  0  0  0  0  0  0
    0.2167   -1.1167    0.0000 I   0  0  0  0  0  0  0  0  0  0  0  0
    6.6417   -1.5167    0.0000 I   0  0  0  0  0  0  0  0  0  0  0  0
    6.6375    0.1375    0.0000 O   0  0  0  0  0  0  0  0  0  0  0  0
    0.2167   -2.7667    0.0000 O   0  0  0  0  0  0  0  0  0  0  0  0
    3.0667   -0.2875    0.0000 C   0  0  0  0  0  0  0  0  0  0  0  0
    3.7917   -2.3417    0.0000 C   0  0  0  0  0  0  0  0  0  0  0  0
    2.3542    0.1208    0.0000 C   0  0  0  0  0  0  0  0  0  0  0  0
    4.5042   -2.7542    0.0000 C   0  0  0  0  0  0  0  0  0  0  0  0
  2  3  1  0
  3  4  1  0
  4  1  1  0
  5  1  2  0
  6  2  2  0
  7  5  1  0
  8  6  1  0
  9 14  1  0
 10 13  1  0
 11  1  1  0
 12  2  1  0
 13 12  2  0
 14 11  2  0
 15  7  1  0
 16  8  1  0
 17 10  1  0
 18  9  1  0
 19  4  1  0
 20  3  1  0
 21 19  1  0
 22 20  1  0
  7  9  2  0
  8 10  2  0
M  END

> <chembl_id>
CHEMBL6295

> <chembl_pref_name>
None

$$$$

     RDKit          2D

 26 28  0  0  0  0  0  0  0  0999 V2000
    4.3292   -3.6917    0.0000 S   0  0  0  0  0  0  0  0  0  0  0  0
    5.0417   -4.1042    0.0000 N   0  0  0  0  0  0  0  0  0  0  0  0
    5.7542   -3.6792    0.0000 C   0  0  0  0  0  0  0  0  0  0  0  0
    6.4792   -4.0875    0.0000 C   0  0  0  0  0  0  0  0  0  0  0  0
    4.3292   -2.8542    0.0000 C   0  0  0  0  0  0  0  0  0  0  0  0
    7.1917   -3.6667    0.0000 N   0  0  0  0  0  0  0  0  0  0  0  0
    3.6125   -2.4417    0.0000 C   0  0  0  0  0  0  0  0  0  0  0  0
    3.6125   -1.6125    0.0000 C   0  0  0  0  0  0  0  0  0  0  0  0
    5.7500   -2.8542    0.0000 N   0  0  0  0  0  0  0  0  0  0  0  0
    2.8792   -1.1917    0.0000 C   0  0  0  0  0  0  0  0  0  0  0  0
    6.4792   -4.9167    0.0000 C   0  0  0  0  0  0  0  0  0  0  0  0
    6.4917   -5.7500    0.0000 N   0  0  0  0  0  0  0  0  0  0  0  0
    3.5000   -3.6792    0.0000 O   0  0  0  0  0  0  0  0  0  0  0  0
    4.3167   -4.5167    0.0000 O   0  0  0  0  0  0  0  0  0  0  0  0
    7.1917   -2.8417    0.0000 C   0  0  0  0  0  0  0  0  0  0  0  0
    2.8792   -0.3667    0.0000 N   0  0  0  0  0  0  0  0  0  0  0  0
    6.4667   -2.4250    0.0000 C   0  0  0  0  0  0  0  0  0  0  0  0
    7.9042   -2.4250    0.0000 Br  0  0  0  0  0  0  0  0  0  0  0  0
    5.0417   -2.4417    0.0000 C   0  0  0  0  0  0  0  0  0  0  0  0
    2.8792   -2.8542    0.0000 C   0  0  0  0  0  0  0  0  0  0  0  0
    4.3167   -1.1917    0.0000 C   0  0  0  0  0  0  0  0  0  0  0  0
    2.1750   -1.6125    0.0000 C   0  0  0  0  0  0  0  0  0  0  0  0
    5.0417   -1.6125    0.0000 C   0  0  0  0  0  0  0  0  0  0  0  0
    2.1750   -2.4417    0.0000 C   0  0  0  0  0  0  0  0  0  0  0  0
    2.1542    0.0500    0.0000 C   0  0  0  0  0  0  0  0  0  0  0  0
    3.6125    0.0500    0.0000 C   0  0  0  0  0  0  0  0  0  0  0  0
  2  1  1  0
  3  2  1  0
  4  3  1  0
  5  1  1  0
  6  4  2  0
  7  5  1  0
  8  7  2  0
  9  3  2  0
 10  8  1  0
 11  4  1  0
 12 11  3  0
 13  1  2  0
 14  1  2  0
 15 17  2  0
 16 10  1  0
 17  9  1  0
 18 15  1  0
 19  5  2  0
 20  7  1  0
 21 23  2  0
 22 24  1  0
 23 19  1  0
 24 20  2  0
 25 16  1  0
 26 16  1  0
 21  8  1  0
 22 10  2  0
 15  6  1  0
M  END

> <chembl_id>
CHEMBL6296

> <chembl_pref_name>
None

$$$$

     RDKit          2D

 13 12  0  0  0  0  0  0  0  0999 V2000
    2.3917    0.8375    0.0000 P   0  0  0  0  0  0  0  0  0  0  0  0
    1.5792   -2.6750    0.0000 C   0  0  0  0  0  0  0  0  0  0  0  0
    1.5917    0.6208    0.0000 C   0  0  0  0  0  0  0  0  0  0  0  0
    2.2917   -3.0875    0.0000 N   0  0  0  0  0  0  0  0  0  0  0  0
    2.3792    1.6625    0.0000 O   0  0  0  0  0  0  0  0  0  0  0  0
    1.5792   -1.8500    0.0000 N   0  0  0  0  0  0  0  0  0  0  0  0
    3.1042    1.2583    0.0000 O   0  0  0  0  0  0  0  0  0  0  0  0
    0.8625   -3.0792    0.0000 N   0  0  0  0  0  0  0  0  0  0  0  0
    0.8292    0.9375    0.0000 N   0  0  0  0  0  0  0  0  0  0  0  0
    1.5917   -0.2042    0.0000 C   0  0  0  0  0  0  0  0  0  0  0  0
    2.2875   -3.9125    0.0000 C   0  0  0  0  0  0  0  0  0  0  0  0
    2.3000   -1.4417    0.0000 C   0  0  0  0  0  0  0  0  0  0  0  0
    2.3042   -0.6167    0.0000 C   0  0  0  0  0  0  0  0  0  0  0  0
  2  6  1  0
  3  1  1  0
  4  2  1  0
  5  1  2  0
  6 12  1  0
  7  1  1  0
  8  2  2  0
  9  3  1  0
 10  3  1  0
 11  4  1  0
 12 13  1  0
 13 10  1  0
M  END

> <chembl_id>
CHEMBL6305

> <chembl_pref_name>
None

$$$$

     RDKit          2D

 13 15  0  0  0  0  0  0  0  0999 V2000
    4.9729   -1.0136    0.0000 N   0  0  0  0  0  0  0  0  0  0  0  0
    6.9993   -0.0871    0.0000 N   0  0  0  0  0  0  0  0  0  0  0  0
    5.3854    0.2560    0.0000 C   0  0  0  0  0  0  0  0  0  0  0  0
    4.5604    0.2560    0.0000 C   0  0  0  0  0  0  0  0  0  0  0  0
    5.6403   -0.5286    0.0000 C   0  0  0  0  0  0  0  0  0  0  0  0
    4.3054   -0.5286    0.0000 C   0  0  0  0  0  0  0  0  0  0  0  0
    5.9374    0.8691    0.0000 C   0  0  0  0  0  0  0  0  0  0  0  0
    4.0083    0.8691    0.0000 C   0  0  0  0  0  0  0  0  0  0  0  0
    6.4473   -0.7002    0.0000 C   0  0  0  0  0  0  0  0  0  0  0  0
    3.4985   -0.7002    0.0000 C   0  0  0  0  0  0  0  0  0  0  0  0
    6.7444    0.6976    0.0000 C   0  0  0  0  0  0  0  0  0  0  0  0
    3.2014    0.6976    0.0000 C   0  0  0  0  0  0  0  0  0  0  0  0
    2.9464   -0.0871    0.0000 C   0  0  0  0  0  0  0  0  0  0  0  0
  1  5  1  0
  1  6  1  0
  2  9  2  0
  2 11  1  0
  3  4  1  0
  3  5  2  0
  3  7  1  0
  4  6  1  0
  4  8  2  0
  5  9  1  0
  6 10  2  0
  7 11  1  0
  8 12  1  0
 10 13  1  0
 12 13  2  0
M  END

> <chembl_id>
CHEMBL266221

> <chembl_pref_name>
None

$$$$

     RDKit          2D

 24 26  0  0  0  0  0  0  0  0999 V2000
    4.3167   -4.0917    0.0000 S   0  0  0  0  0  0  0  0  0  0  0  0
    5.0292   -4.5042    0.0000 N   0  0  0  0  0  0  0  0  0  0  0  0
    4.3167   -3.2667    0.0000 C   0  0  0  0  0  0  0  0  0  0  0  0
    3.6042   -2.8542    0.0000 C   0  0  0  0  0  0  0  0  0  0  0  0
    3.6042   -2.0250    0.0000 C   0  0  0  0  0  0  0  0  0  0  0  0
    5.7542   -4.0792    0.0000 C   0  0  0  0  0  0  0  0  0  0  0  0
    2.8792   -1.6042    0.0000 C   0  0  0  0  0  0  0  0  0  0  0  0
    5.7417   -3.2542    0.0000 N   0  0  0  0  0  0  0  0  0  0  0  0
    6.4667   -2.8375    0.0000 N   0  0  0  0  0  0  0  0  0  0  0  0
    3.4917   -4.0792    0.0000 O   0  0  0  0  0  0  0  0  0  0  0  0
    4.3167   -4.9250    0.0000 O   0  0  0  0  0  0  0  0  0  0  0  0
    7.1875   -3.2417    0.0000 C   0  0  0  0  0  0  0  0  0  0  0  0
    2.8792   -0.7792    0.0000 N   0  0  0  0  0  0  0  0  0  0  0  0
    6.4792   -4.5000    0.0000 C   0  0  0  0  0  0  0  0  0  0  0  0
    7.9042   -2.8292    0.0000 Br  0  0  0  0  0  0  0  0  0  0  0  0
    7.1875   -4.0792    0.0000 C   0  0  0  0  0  0  0  0  0  0  0  0
    5.0292   -2.8500    0.0000 C   0  0  0  0  0  0  0  0  0  0  0  0
    2.8792   -3.2667    0.0000 C   0  0  0  0  0  0  0  0  0  0  0  0
    4.3167   -1.6042    0.0000 C   0  0  0  0  0  0  0  0  0  0  0  0
    2.1750   -2.0250    0.0000 C   0  0  0  0  0  0  0  0  0  0  0  0
    5.0292   -2.0167    0.0000 C   0  0  0  0  0  0  0  0  0  0  0  0
    2.1750   -2.8542    0.0000 C   0  0  0  0  0  0  0  0  0  0  0  0
    2.1542   -0.3625    0.0000 C   0  0  0  0  0  0  0  0  0  0  0  0
    3.6042   -0.3542    0.0000 C   0  0  0  0  0  0  0  0  0  0  0  0
  2  1  1  0
  3  1  1  0
  4  3  1  0
  5  4  2  0
  6  2  1  0
  7  5  1  0
  8  6  2  0
  9  8  1  0
 10  1  2  0
 11  1  2  0
 12 16  1  0
 13  7  1  0
 14  6  1  0
 15 12  1  0
 16 14  2  0
 17  3  2  0
 18  4  1  0
 19 21  2  0
 20 22  1  0
 21 17  1  0
 22 18  2  0
 23 13  1  0
 24 13  1  0
 19  5  1  0
 20  7  2  0
 12  9  2  0
M  END

> <chembl_id>
CHEMBL6297

> <chembl_pref_name>
None

$$$$

     RDKit          2D

 24 26  0  0  0  0  0  0  0  0999 V2000
    4.3417   -4.0917    0.0000 S   0  0  0  0  0  0  0  0  0  0  0  0
    5.0667   -4.5042    0.0000 N   0  0  0  0  0  0  0  0  0  0  0  0
    4.3417   -3.2667    0.0000 C   0  0  0  0  0  0  0  0  0  0  0  0
    3.6292   -2.8500    0.0000 C   0  0  0  0  0  0  0  0  0  0  0  0
    3.6292   -2.0292    0.0000 C   0  0  0  0  0  0  0  0  0  0  0  0
    5.7792   -4.0917    0.0000 C   0  0  0  0  0  0  0  0  0  0  0  0
    2.9125   -1.6167    0.0000 C   0  0  0  0  0  0  0  0  0  0  0  0
    5.7667   -3.2667    0.0000 N   0  0  0  0  0  0  0  0  0  0  0  0
    6.4917   -2.8417    0.0000 N   0  0  0  0  0  0  0  0  0  0  0  0
    3.5167   -4.0917    0.0000 O   0  0  0  0  0  0  0  0  0  0  0  0
    4.3417   -4.9250    0.0000 O   0  0  0  0  0  0  0  0  0  0  0  0
    7.2125   -3.2417    0.0000 C   0  0  0  0  0  0  0  0  0  0  0  0
    2.9125   -0.7792    0.0000 N   0  0  0  0  0  0  0  0  0  0  0  0
    6.5042   -4.5042    0.0000 C   0  0  0  0  0  0  0  0  0  0  0  0
    7.9292   -2.8292    0.0000 Cl  0  0  0  0  0  0  0  0  0  0  0  0
    7.2125   -4.0792    0.0000 C   0  0  0  0  0  0  0  0  0  0  0  0
    5.0667   -2.8500    0.0000 C   0  0  0  0  0  0  0  0  0  0  0  0
    2.9125   -3.2750    0.0000 C   0  0  0  0  0  0  0  0  0  0  0  0
    4.3417   -1.6042    0.0000 C   0  0  0  0  0  0  0  0  0  0  0  0
    2.1917   -2.0292    0.0000 C   0  0  0  0  0  0  0  0  0  0  0  0
    5.0667   -2.0167    0.0000 C   0  0  0  0  0  0  0  0  0  0  0  0
    2.1917   -2.8500    0.0000 C   0  0  0  0  0  0  0  0  0  0  0  0
    2.1792   -0.3667    0.0000 C   0  0  0  0  0  0  0  0  0  0  0  0
    3.6292   -0.3542    0.0000 C   0  0  0  0  0  0  0  0  0  0  0  0
  2  1  1  0
  3  1  1  0
  4  3  1  0
  5  4  2  0
  6  2  1  0
  7  5  1  0
  8  6  2  0
  9  8  1  0
 10  1  2  0
 11  1  2  0
 12 16  1  0
 13  7  1  0
 14  6  1  0
 15 12  1  0
 16 14  2  0
 17  3  2  0
 18  4  1  0
 19 21  2  0
 20 22  1  0
 21 17  1  0
 22 18  2  0
 23 13  1  0
 24 13  1  0
 19  5  1  0
 20  7  2  0
 12  9  2  0
M  END

> <chembl_id>
CHEMBL6761

> <chembl_pref_name>
None

$$$$

     RDKit          2D

 47 49  0  0  1  0  0  0  0  0999 V2000
    2.2042   -4.3792    0.0000 N   0  0  0  0  0  0  0  0  0  0  0  0
    1.2542   -4.3750    0.0000 C   0  0  0  0  0  0  0  0  0  0  0  0
    3.6292   -4.3917    0.0000 C   0  0  0  0  0  0  0  0  0  0  0  0
    7.5292   -4.3917    0.0000 C   0  0  0  0  0  0  0  0  0  0  0  0
    5.6042   -2.5542    0.0000 C   0  0  0  0  0  0  0  0  0  0  0  0
    6.1042   -4.3792    0.0000 N   0  0  0  0  0  0  0  0  0  0  0  0
    5.5792   -4.3750    0.0000 C   0  0  0  0  0  0  0  0  0  0  0  0
    2.9042   -4.8792    0.0000 C   0  0  0  0  0  0  0  0  0  0  0  0
    6.7917   -4.8792    0.0000 C   0  0  0  0  0  0  0  0  0  0  0  0
    4.1542   -4.3917    0.0000 N   0  0  0  0  0  0  0  0  0  0  0  0
    8.0542   -4.3917    0.0000 N   0  0  0  0  0  0  0  0  0  0  0  0
    6.9167   -2.0000    0.0000 N   0  0  0  0  0  0  0  0  0  0  0  0
    6.4667   -2.7542    0.0000 C   0  0  0  0  0  0  0  0  0  0  0  0
    4.8542   -3.8792    0.0000 C   0  0  0  0  0  0  0  0  0  0  0  0
    8.7417   -3.8792    0.0000 C   0  0  0  0  0  0  0  0  0  0  0  0
    5.5292   -1.6875    0.0000 C   0  0  0  0  0  0  0  0  0  0  0  0
    9.4667   -4.3750    0.0000 C   0  0  0  0  0  0  0  0  0  0  0  0
    4.8542   -3.0000    0.0000 C   0  0  0  0  0  0  0  0  0  0  0  0
    6.3417   -1.3375    0.0000 C   0  0  0  0  0  0  0  0  0  0  0  0
    6.7917   -5.7667    0.0000 C   0  0  0  0  0  0  0  0  0  0  0  0
    0.6792   -5.1792    0.0000 O   0  0  0  0  0  0  0  0  0  0  0  0
    3.6292   -3.5042    0.0000 O   0  0  0  0  0  0  0  0  0  0  0  0
    7.5292   -3.5042    0.0000 O   0  0  0  0  0  0  0  0  0  0  0  0
    5.5792   -5.2542    0.0000 O   0  0  0  0  0  0  0  0  0  0  0  0
    0.9542   -3.8792    0.0000 C   0  0  0  0  0  0  0  0  0  0  0  0
    9.4792   -5.2542    0.0000 O   0  0  0  0  0  0  0  0  0  0  0  0
    8.7417   -3.0000    0.0000 C   0  0  0  0  0  0  0  0  0  0  0  0
    1.5292   -5.0542    0.0000 C   0  0  0  0  0  0  0  0  0  0  0  0
    9.9792   -4.2167    0.0000 O   0  0  0  0  0  0  0  0  0  0  0  0
    0.2667   -3.9792    0.0000 N   0  0  0  0  0  0  0  0  0  0  0  0
    2.4792   -0.3667    0.0000 N   0  0  0  0  0  0  0  0  0  0  0  0
    2.9042   -5.7667    0.0000 C   0  0  0  0  0  0  0  0  0  0  0  0
    1.9542   -5.9125    0.0000 C   0  0  0  0  0  0  0  0  0  0  0  0
    4.8292   -1.1542    0.0000 C   0  0  0  0  0  0  0  0  0  0  0  0
    9.5042   -2.5625    0.0000 C   0  0  0  0  0  0  0  0  0  0  0  0
    6.0292   -6.2042    0.0000 C   0  0  0  0  0  0  0  0  0  0  0  0
    7.5542   -6.2125    0.0000 C   0  0  0  0  0  0  0  0  0  0  0  0
    6.7917   -6.6500    0.0000 C   0  0  0  0  0  0  0  0  0  0  0  0
    6.4417   -0.4667    0.0000 C   0  0  0  0  0  0  0  0  0  0  0  0
    0.9542   -3.0000    0.0000 C   0  0  0  0  0  0  0  0  0  0  0  0
    2.4792   -1.2417    0.0000 C   0  0  0  0  0  0  0  0  0  0  0  0
    1.7167   -1.6792    0.0000 C   0  0  0  0  0  0  0  0  0  0  0  0
    1.7167   -2.5625    0.0000 C   0  0  0  0  0  0  0  0  0  0  0  0
    9.5042   -1.6792    0.0000 C   0  0  0  0  0  0  0  0  0  0  0  0
   10.2667   -3.0000    0.0000 C   0  0  0  0  0  0  0  0  0  0  0  0
    4.9292   -0.2792    0.0000 C   0  0  0  0  0  0  0  0  0  0  0  0
    5.7417    0.0625    0.0000 C   0  0  0  0  0  0  0  0  0  0  0  0
  2  1  1  0
  8  3  1  6
  4  9  1  0
  5 18  1  0
  6  7  1  0
  7 14  1  0
  8  1  1  0
  9  6  1  0
 10  3  1  0
 11  4  1  0
 12 13  1  0
 13  5  2  0
 14 10  1  0
 15 11  1  0
 16  5  1  0
 17 15  1  0
 14 18  1  1
 19 16  2  0
  9 20  1  6
 21  2  2  0
 22  3  2  0
 23  4  2  0
 24  7  2  0
 25  2  1  0
 26 17  2  0
 15 27  1  1
 28  1  1  0
 29 17  1  0
 30 25  1  0
 31 41  1  0
 32  8  1  0
 33 28  1  0
 34 16  1  0
 35 27  1  0
 36 20  1  0
 37 20  1  0
 38 20  1  0
 39 19  1  0
 25 40  1  1
 41 42  1  0
 42 43  1  0
 43 40  1  0
 44 35  1  0
 45 35  1  0
 46 34  2  0
 47 46  1  0
 32 33  1  0
 12 19  1  0
 47 39  2  0
M  END

> <chembl_id>
CHEMBL380726

> <chembl_pref_name>
None

$$$$

     RDKit          2D

 23 24  0  0  0  0  0  0  0  0999 V2000
    3.8375   -2.4667    0.0000 C   0  0  0  0  0  0  0  0  0  0  0  0
    2.4042   -3.3000    0.0000 C   0  0  0  0  0  0  0  0  0  0  0  0
    3.1167   -3.7125    0.0000 C   0  0  0  0  0  0  0  0  0  0  0  0
    2.4042   -2.4750    0.0000 C   0  0  0  0  0  0  0  0  0  0  0  0
    5.9792   -2.0500    0.0000 C   0  0  0  0  0  0  0  0  0  0  0  0
    4.5500   -2.0542    0.0000 C   0  0  0  0  0  0  0  0  0  0  0  0
    3.8375   -3.3000    0.0000 C   0  0  0  0  0  0  0  0  0  0  0  0
    3.1167   -2.0542    0.0000 C   0  0  0  0  0  0  0  0  0  0  0  0
    5.2667   -2.4625    0.0000 C   0  0  0  0  0  0  0  0  0  0  0  0
    5.9667   -1.2292    0.0000 C   0  0  0  0  0  0  0  0  0  0  0  0
    6.6792   -0.8125    0.0000 C   0  0  0  0  0  0  0  0  0  0  0  0
    7.4042   -1.2167    0.0000 C   0  0  0  0  0  0  0  0  0  0  0  0
    6.6917   -2.4625    0.0000 C   0  0  0  0  0  0  0  0  0  0  0  0
    7.4042   -2.0417    0.0000 C   0  0  0  0  0  0  0  0  0  0  0  0
    1.6917   -2.0625    0.0000 Br  0  0  0  0  0  0  0  0  0  0  0  0
    3.1167   -4.5375    0.0000 Br  0  0  0  0  0  0  0  0  0  0  0  0
    1.6917   -3.7042    0.0000 O   0  0  0  0  0  0  0  0  0  0  0  0
    6.6750    0.0125    0.0000 Br  0  0  0  0  0  0  0  0  0  0  0  0
    8.1125   -0.8042    0.0000 O   0  0  0  0  0  0  0  0  0  0  0  0
    4.5417   -1.2292    0.0000 C   0  0  0  0  0  0  0  0  0  0  0  0
    5.2667   -3.2875    0.0000 C   0  0  0  0  0  0  0  0  0  0  0  0
    5.9792   -3.7000    0.0000 C   0  0  0  0  0  0  0  0  0  0  0  0
    3.8292   -0.8167    0.0000 C   0  0  0  0  0  0  0  0  0  0  0  0
  2  4  2  0
  3  7  2  0
  4  8  1  0
  5  9  1  0
  6  1  1  0
  7  1  1  0
  8  1  2  0
  9  6  1  0
 10  5  1  0
 11 10  2  0
 12 14  2  0
 13  5  2  0
 14 13  1  0
 15  4  1  0
 16  3  1  0
 17  2  1  0
 18 11  1  0
 19 12  1  0
 20  6  1  0
 21  9  1  0
 22 21  1  0
 23 20  1  0
  2  3  1  0
 12 11  1  0
M  END

> <chembl_id>
CHEMBL6516

> <chembl_pref_name>
None

$$$$

     RDKit          2D

 16 15  0  0  0  0  0  0  0  0999 V2000
    2.2875   -3.9125    0.0000 N   0  0  0  0  0  0  0  0  0  0  0  0
    2.2917   -3.0875    0.0000 N   0  0  0  0  0  0  0  0  0  0  0  0
    2.3917    0.8375    0.0000 P   0  0  0  0  0  0  0  0  0  0  0  0
    1.5792   -2.6750    0.0000 C   0  0  0  0  0  0  0  0  0  0  0  0
    1.5917    0.6208    0.0000 C   0  0  0  0  0  0  0  0  0  0  0  0
    1.5667   -4.3292    0.0000 O   0  0  0  0  0  0  0  0  0  0  0  0
    3.0000   -4.3375    0.0000 O   0  0  0  0  0  0  0  0  0  0  0  0
    2.3792    1.6625    0.0000 O   0  0  0  0  0  0  0  0  0  0  0  0
    3.1042    0.4250    0.0000 O   0  0  0  0  0  0  0  0  0  0  0  0
    3.1042    1.2583    0.0000 O   0  0  0  0  0  0  0  0  0  0  0  0
    1.5792   -1.8500    0.0000 N   0  0  0  0  0  0  0  0  0  0  0  0
    0.8625   -3.0792    0.0000 N   0  0  0  0  0  0  0  0  0  0  0  0
    0.8292    0.9375    0.0000 N   0  0  0  0  0  0  0  0  0  0  0  0
    1.5917   -0.2042    0.0000 C   0  0  0  0  0  0  0  0  0  0  0  0
    2.3000   -1.4417    0.0000 C   0  0  0  0  0  0  0  0  0  0  0  0
    2.3042   -0.6167    0.0000 C   0  0  0  0  0  0  0  0  0  0  0  0
  2  1  1  0
  3  5  1  0
  4  2  1  0
  5 14  1  0
  6  1  1  0
  7  1  2  0
  8  3  2  0
  9  3  1  0
 10  3  1  0
 11  4  2  0
 12  4  1  0
 13  5  1  0
 14 16  1  0
 15 11  1  0
 16 15  1  0
M  CHG  2   1   1   6  -1
M  END

> <chembl_id>
CHEMBL269057

> <chembl_pref_name>
None

$$$$

     RDKit          2D

 14 16  0  0  0  0  0  0  0  0999 V2000
    5.9667    0.3333    0.0000 N   0  0  0  0  0  0  0  0  0  0  0  0
    5.9417    1.6625    0.0000 C   0  0  0  0  0  0  0  0  0  0  0  0
    6.4292    1.0000    0.0000 C   0  0  0  0  0  0  0  0  0  0  0  0
    5.1625    1.3958    0.0000 C   0  0  0  0  0  0  0  0  0  0  0  0
    5.1750    0.5708    0.0000 C   0  0  0  0  0  0  0  0  0  0  0  0
    4.4375    1.7833    0.0000 C   0  0  0  0  0  0  0  0  0  0  0  0
    7.5917    1.8583    0.0000 N   0  0  0  0  0  0  0  0  0  0  0  0
    7.2542    1.1000    0.0000 C   0  0  0  0  0  0  0  0  0  0  0  0
    4.4292    2.6083    0.0000 Br  0  0  0  0  0  0  0  0  0  0  0  0
    6.2625    2.4250    0.0000 C   0  0  0  0  0  0  0  0  0  0  0  0
    4.4750    0.1375    0.0000 C   0  0  0  0  0  0  0  0  0  0  0  0
    3.7417    0.5375    0.0000 C   0  0  0  0  0  0  0  0  0  0  0  0
    7.0792    2.5333    0.0000 C   0  0  0  0  0  0  0  0  0  0  0  0
    3.7292    1.3583    0.0000 C   0  0  0  0  0  0  0  0  0  0  0  0
  2  3  2  0
  3  1  1  0
  4  5  1  0
  5  1  1  0
  6  4  2  0
  7  8  1  0
  8  3  1  0
  9  6  1  0
 10  2  1  0
 11  5  2  0
 12 11  1  0
 13  7  1  0
 14 12  2  0
  4  2  1  0
 14  6  1  0
 10 13  1  0
M  END

> <chembl_id>
CHEMBL6426

> <chembl_pref_name>
None

$$$$

     RDKit          2D

 14 16  0  0  0  0  0  0  0  0999 V2000
    5.9042   -1.7417    0.0000 N   0  0  0  0  0  0  0  0  0  0  0  0
    6.3667   -1.0750    0.0000 C   0  0  0  0  0  0  0  0  0  0  0  0
    5.8750   -0.4125    0.0000 C   0  0  0  0  0  0  0  0  0  0  0  0
    5.0917   -0.6792    0.0000 C   0  0  0  0  0  0  0  0  0  0  0  0
    5.1042   -1.5042    0.0000 C   0  0  0  0  0  0  0  0  0  0  0  0
    4.3667   -0.2917    0.0000 C   0  0  0  0  0  0  0  0  0  0  0  0
    7.5250   -0.2167    0.0000 N   0  0  0  0  0  0  0  0  0  0  0  0
    4.4042   -1.9375    0.0000 C   0  0  0  0  0  0  0  0  0  0  0  0
    7.1917   -0.9750    0.0000 C   0  0  0  0  0  0  0  0  0  0  0  0
    3.6667   -0.7167    0.0000 C   0  0  0  0  0  0  0  0  0  0  0  0
    3.6792   -1.5375    0.0000 C   0  0  0  0  0  0  0  0  0  0  0  0
    6.1917    0.3500    0.0000 C   0  0  0  0  0  0  0  0  0  0  0  0
    2.9500   -0.3042    0.0000 Br  0  0  0  0  0  0  0  0  0  0  0  0
    7.0125    0.4583    0.0000 C   0  0  0  0  0  0  0  0  0  0  0  0
  2  1  1  0
  3  2  2  0
  4  5  1  0
  5  1  1  0
  6  4  2  0
  7  9  1  0
  8  5  2  0
  9  2  1  0
 10 11  2  0
 11  8  1  0
 12  3  1  0
 13 10  1  0
 14  7  1  0
  4  3  1  0
 10  6  1  0
 12 14  1  0
M  END

> <chembl_id>
CHEMBL6427

> <chembl_pref_name>
None

$$$$

     RDKit          2D

 55 57  0  0  1  0  0  0  0  0999 V2000
    3.3542   -3.3625    0.0000 N   0  0  0  0  0  0  0  0  0  0  0  0
    2.6417   -2.9500    0.0000 C   0  0  0  0  0  0  0  0  0  0  0  0
    4.7667   -3.3167    0.0000 C   0  0  0  0  0  0  0  0  0  0  0  0
    6.9125    0.2208    0.0000 C   0  0  0  0  0  0  0  0  0  0  0  0
    6.3792   -3.3417    0.0000 C   0  0  0  0  0  0  0  0  0  0  0  0
    6.2000   -0.9542    0.0000 N   0  0  0  0  0  0  0  0  0  0  0  0
    5.5000   -1.3417    0.0000 C   0  0  0  0  0  0  0  0  0  0  0  0
    4.0750   -3.7000    0.0000 C   0  0  0  0  0  0  0  0  0  0  0  0
    6.2125   -0.1667    0.0000 C   0  0  0  0  0  0  0  0  0  0  0  0
    4.7917   -2.5167    0.0000 N   0  0  0  0  0  0  0  0  0  0  0  0
    6.9250    1.0208    0.0000 N   0  0  0  0  0  0  0  0  0  0  0  0
    6.1792   -4.4917    0.0000 N   0  0  0  0  0  0  0  0  0  0  0  0
    5.8292   -3.8042    0.0000 C   0  0  0  0  0  0  0  0  0  0  0  0
    5.4875   -2.1375    0.0000 C   0  0  0  0  0  0  0  0  0  0  0  0
   -1.1625   -2.5542    0.0000 C   0  0  0  0  0  0  0  0  0  0  0  0
    0.7042   -6.6292    0.0000 C   0  0  0  0  0  0  0  0  0  0  0  0
    7.6167    1.4000    0.0000 C   0  0  0  0  0  0  0  0  0  0  0  0
    7.0625   -3.7375    0.0000 C   0  0  0  0  0  0  0  0  0  0  0  0
    7.6375    2.1958    0.0000 C   0  0  0  0  0  0  0  0  0  0  0  0
    6.1667   -2.5417    0.0000 C   0  0  0  0  0  0  0  0  0  0  0  0
    6.9375   -4.4542    0.0000 C   0  0  0  0  0  0  0  0  0  0  0  0
    5.5375    0.2458    0.0000 C   0  0  0  0  0  0  0  0  0  0  0  0
   -1.9583   -2.3417    0.0000 N   0  0  0  0  0  0  0  0  0  0  0  0
    1.5042   -6.8417    0.0000 N   0  0  0  0  0  0  0  0  0  0  0  0
    2.6417   -2.1167    0.0000 O   0  0  0  0  0  0  0  0  0  0  0  0
    5.4542   -3.7292    0.0000 O   0  0  0  0  0  0  0  0  0  0  0  0
    7.5875   -0.1917    0.0000 O   0  0  0  0  0  0  0  0  0  0  0  0
    4.8167   -0.9292    0.0000 O   0  0  0  0  0  0  0  0  0  0  0  0
    6.9542    2.6083    0.0000 O   0  0  0  0  0  0  0  0  0  0  0  0
    8.3042    0.9958    0.0000 C   0  0  0  0  0  0  0  0  0  0  0  0
    1.9167   -3.3625    0.0000 C   0  0  0  0  0  0  0  0  0  0  0  0
    0.4917   -5.8375    0.0000 N   0  0  0  0  0  0  0  0  0  0  0  0
   -0.9458   -3.3542    0.0000 N   0  0  0  0  0  0  0  0  0  0  0  0
    0.1250   -7.2167    0.0000 N   0  0  0  0  0  0  0  0  0  0  0  0
   -0.5833   -1.9750    0.0000 N   0  0  0  0  0  0  0  0  0  0  0  0
    2.8125   -3.9417    0.0000 C   0  0  0  0  0  0  0  0  0  0  0  0
    8.3292    2.5833    0.0000 O   0  0  0  0  0  0  0  0  0  0  0  0
    3.9792   -4.4875    0.0000 C   0  0  0  0  0  0  0  0  0  0  0  0
    3.1917   -4.6375    0.0000 C   0  0  0  0  0  0  0  0  0  0  0  0
    7.7792   -3.5500    0.0000 C   0  0  0  0  0  0  0  0  0  0  0  0
    9.0000    1.3750    0.0000 C   0  0  0  0  0  0  0  0  0  0  0  0
    5.6417    1.2583    0.0000 C   0  0  0  0  0  0  0  0  0  0  0  0
    4.5542   -0.2417    0.0000 C   0  0  0  0  0  0  0  0  0  0  0  0
    4.4917    1.1583    0.0000 C   0  0  0  0  0  0  0  0  0  0  0  0
    7.5375   -4.9750    0.0000 C   0  0  0  0  0  0  0  0  0  0  0  0
    1.2042   -5.4292    0.0000 C   0  0  0  0  0  0  0  0  0  0  0  0
   -0.2333   -2.9500    0.0000 C   0  0  0  0  0  0  0  0  0  0  0  0
    1.2042   -2.9500    0.0000 C   0  0  0  0  0  0  0  0  0  0  0  0
    1.9167   -4.1917    0.0000 C   0  0  0  0  0  0  0  0  0  0  0  0
    0.4875   -3.3625    0.0000 C   0  0  0  0  0  0  0  0  0  0  0  0
    1.2042   -4.6042    0.0000 C   0  0  0  0  0  0  0  0  0  0  0  0
    9.0375    2.1500    0.0000 C   0  0  0  0  0  0  0  0  0  0  0  0
    9.6792    0.9625    0.0000 C   0  0  0  0  0  0  0  0  0  0  0  0
    8.3792   -4.0667    0.0000 C   0  0  0  0  0  0  0  0  0  0  0  0
    8.2542   -4.7792    0.0000 C   0  0  0  0  0  0  0  0  0  0  0  0
  2  1  1  0
  8  3  1  1
  4  9  1  0
  5 20  1  0
  6  7  1  0
  7 14  1  0
  8  1  1  0
  9  6  1  0
 10  3  1  0
 11  4  1  0
 12 13  1  0
 13  5  2  0
 14 10  1  0
 15 33  2  0
 16 32  2  0
 17 11  1  0
 18  5  1  0
 19 17  1  0
 14 20  1  6
 21 18  2  0
  9 22  1  1
 23 15  1  0
 24 16  1  0
 25  2  2  0
 26  3  2  0
 27  4  2  0
 28  7  2  0
 29 19  2  0
 17 30  1  6
 31  2  1  0
 32 46  1  0
 33 47  1  0
 34 16  1  0
 35 15  1  0
 36  1  1  0
 37 19  1  0
 38  8  1  0
 39 36  1  0
 40 18  1  0
 41 30  1  0
 42 22  1  0
 43 22  1  0
 44 22  1  0
 45 21  1  0
 46 51  1  0
 47 50  1  0
 48 31  1  0
 49 31  1  0
 50 48  1  0
 51 49  1  0
 52 41  1  0
 53 41  1  0
 54 40  2  0
 55 54  1  0
 39 38  1  0
 21 12  1  0
 45 55  2  0
M  END

> <chembl_id>
CHEMBL6716

> <chembl_pref_name>
None

$$$$

     RDKit          2D

 55 57  0  0  1  0  0  0  0  0999 V2000
   -0.1500   -3.7625    0.0000 N   0  0  0  0  0  0  0  0  0  0  0  0
   -0.9583   -3.5500    0.0000 C   0  0  0  0  0  0  0  0  0  0  0  0
    1.2500   -4.0917    0.0000 C   0  0  0  0  0  0  0  0  0  0  0  0
    4.2917   -1.2042    0.0000 C   0  0  0  0  0  0  0  0  0  0  0  0
    3.4792   -4.2042    0.0000 C   0  0  0  0  0  0  0  0  0  0  0  0
    3.2750   -2.1667    0.0000 N   0  0  0  0  0  0  0  0  0  0  0  0
    2.4917   -2.3625    0.0000 C   0  0  0  0  0  0  0  0  0  0  0  0
    0.4667   -4.2875    0.0000 C   0  0  0  0  0  0  0  0  0  0  0  0
    1.4792   -3.3250    0.0000 N   0  0  0  0  0  0  0  0  0  0  0  0
    4.5167   -0.4375    0.0000 N   0  0  0  0  0  0  0  0  0  0  0  0
    4.7250   -4.6042    0.0000 N   0  0  0  0  0  0  0  0  0  0  0  0
    3.5042   -1.4000    0.0000 C   0  0  0  0  0  0  0  0  0  0  0  0
    4.2500   -3.9417    0.0000 C   0  0  0  0  0  0  0  0  0  0  0  0
    2.2542   -3.1250    0.0000 C   0  0  0  0  0  0  0  0  0  0  0  0
    5.3167   -0.2417    0.0000 C   0  0  0  0  0  0  0  0  0  0  0  0
    3.4792   -5.0042    0.0000 C   0  0  0  0  0  0  0  0  0  0  0  0
    5.5417    0.5583    0.0000 C   0  0  0  0  0  0  0  0  0  0  0  0
    2.8167   -3.7167    0.0000 C   0  0  0  0  0  0  0  0  0  0  0  0
    4.2542   -5.2542    0.0000 C   0  0  0  0  0  0  0  0  0  0  0  0
   -2.4208   -3.5500    0.0000 N   0  0  0  0  0  0  0  0  0  0  0  0
   -0.9583   -2.7042    0.0000 O   0  0  0  0  0  0  0  0  0  0  0  0
    1.8042   -4.6792    0.0000 O   0  0  0  0  0  0  0  0  0  0  0  0
    4.8417   -1.7917    0.0000 O   0  0  0  0  0  0  0  0  0  0  0  0
   -1.6958   -3.9667    0.0000 C   0  0  0  0  0  0  0  0  0  0  0  0
    1.9375   -1.7750    0.0000 O   0  0  0  0  0  0  0  0  0  0  0  0
    4.9750    1.1500    0.0000 O   0  0  0  0  0  0  0  0  0  0  0  0
    5.8875   -0.8375    0.0000 C   0  0  0  0  0  0  0  0  0  0  0  0
   -0.8375   -4.1792    0.0000 C   0  0  0  0  0  0  0  0  0  0  0  0
    2.9500   -0.8125    0.0000 C   0  0  0  0  0  0  0  0  0  0  0  0
    6.3500    0.7500    0.0000 O   0  0  0  0  0  0  0  0  0  0  0  0
   -3.1458   -3.9667    0.0000 C   0  0  0  0  0  0  0  0  0  0  0  0
   -4.6083   -3.9667    0.0000 N   0  0  0  0  0  0  0  0  0  0  0  0
   -0.2333   -7.3375    0.0000 N   0  0  0  0  0  0  0  0  0  0  0  0
   -2.4208   -0.1792    0.0000 N   0  0  0  0  0  0  0  0  0  0  0  0
    0.1542   -5.0375    0.0000 C   0  0  0  0  0  0  0  0  0  0  0  0
   -0.6500   -4.9667    0.0000 C   0  0  0  0  0  0  0  0  0  0  0  0
    2.8792   -5.5500    0.0000 C   0  0  0  0  0  0  0  0  0  0  0  0
   -3.8750   -3.5500    0.0000 C   0  0  0  0  0  0  0  0  0  0  0  0
    6.6875   -0.6417    0.0000 C   0  0  0  0  0  0  0  0  0  0  0  0
    4.4167   -6.0500    0.0000 C   0  0  0  0  0  0  0  0  0  0  0  0
   -1.6958   -4.8125    0.0000 C   0  0  0  0  0  0  0  0  0  0  0  0
   -0.2333   -6.4917    0.0000 C   0  0  0  0  0  0  0  0  0  0  0  0
   -2.4208   -1.0250    0.0000 C   0  0  0  0  0  0  0  0  0  0  0  0
    2.1625   -1.0000    0.0000 C   0  0  0  0  0  0  0  0  0  0  0  0
    3.1750   -0.0292    0.0000 C   0  0  0  0  0  0  0  0  0  0  0  0
   -3.8750   -2.7042    0.0000 C   0  0  0  0  0  0  0  0  0  0  0  0
   -3.1458   -1.4417    0.0000 C   0  0  0  0  0  0  0  0  0  0  0  0
   -0.9583   -6.0792    0.0000 C   0  0  0  0  0  0  0  0  0  0  0  0
   -0.9583   -5.2375    0.0000 C   0  0  0  0  0  0  0  0  0  0  0  0
    6.9167    0.1500    0.0000 C   0  0  0  0  0  0  0  0  0  0  0  0
    7.2542   -1.2375    0.0000 C   0  0  0  0  0  0  0  0  0  0  0  0
   -3.1458   -2.2875    0.0000 C   0  0  0  0  0  0  0  0  0  0  0  0
    1.6042   -0.4125    0.0000 C   0  0  0  0  0  0  0  0  0  0  0  0
    3.0417   -6.3375    0.0000 C   0  0  0  0  0  0  0  0  0  0  0  0
    3.8125   -6.5875    0.0000 C   0  0  0  0  0  0  0  0  0  0  0  0
  2  1  1  0
  8  3  1  1
  4 12  1  0
  5 18  1  0
  6  7  1  0
  7 14  1  0
  8  1  1  0
  9  3  1  0
 10  4  1  0
 11 13  1  0
 12  6  1  1
 13  5  2  0
 14  9  1  6
 15 10  1  6
 16  5  1  0
 17 15  1  0
 14 18  1  0
 19 16  2  0
 24 20  1  6
 21  2  2  0
 22  3  2  0
 23  4  2  0
 24  2  1  0
 25  7  2  0
 26 17  2  0
 15 27  1  0
 28  1  1  0
 12 29  1  0
 30 17  1  0
 31 20  1  0
 38 32  1  1
 33 42  1  0
 34 43  1  0
  8 35  1  0
 36 28  1  0
 37 16  1  0
 38 31  1  0
 39 27  1  0
 40 19  1  0
 24 41  1  0
 42 48  1  0
 43 47  1  0
 44 29  1  0
 29 45  1  6
 38 46  1  0
 47 52  1  0
 48 49  1  0
 49 41  1  0
 50 39  1  0
 51 39  1  0
 52 46  1  0
 53 44  1  0
 54 37  2  0
 55 54  1  0
 35 36  1  0
 11 19  1  0
 40 55  2  0
M  END

> <chembl_id>
CHEMBL427604

> <chembl_pref_name>
None

$$$$

     RDKit          2D

 56 58  0  0  1  0  0  0  0  0999 V2000
    2.0042   -4.3292    0.0000 N   0  0  0  0  0  0  0  0  0  0  0  0
    1.2917   -3.9167    0.0000 C   0  0  0  0  0  0  0  0  0  0  0  0
    3.4167   -4.2792    0.0000 C   0  0  0  0  0  0  0  0  0  0  0  0
    5.5625   -0.7417    0.0000 C   0  0  0  0  0  0  0  0  0  0  0  0
    5.0292   -4.3042    0.0000 C   0  0  0  0  0  0  0  0  0  0  0  0
    4.8500   -1.9250    0.0000 N   0  0  0  0  0  0  0  0  0  0  0  0
    4.1500   -2.3042    0.0000 C   0  0  0  0  0  0  0  0  0  0  0  0
    2.7250   -4.6667    0.0000 C   0  0  0  0  0  0  0  0  0  0  0  0
    4.8625   -1.1292    0.0000 C   0  0  0  0  0  0  0  0  0  0  0  0
    3.4417   -3.4875    0.0000 N   0  0  0  0  0  0  0  0  0  0  0  0
    5.5750    0.0500    0.0000 N   0  0  0  0  0  0  0  0  0  0  0  0
    4.8292   -5.4542    0.0000 N   0  0  0  0  0  0  0  0  0  0  0  0
    4.4792   -4.7667    0.0000 C   0  0  0  0  0  0  0  0  0  0  0  0
    4.1375   -3.1042    0.0000 C   0  0  0  0  0  0  0  0  0  0  0  0
    6.2667    0.4333    0.0000 C   0  0  0  0  0  0  0  0  0  0  0  0
    5.7125   -4.7042    0.0000 C   0  0  0  0  0  0  0  0  0  0  0  0
    4.8167   -3.5125    0.0000 C   0  0  0  0  0  0  0  0  0  0  0  0
    6.2875    1.2333    0.0000 C   0  0  0  0  0  0  0  0  0  0  0  0
    5.5875   -5.4167    0.0000 C   0  0  0  0  0  0  0  0  0  0  0  0
    4.1875   -0.7167    0.0000 C   0  0  0  0  0  0  0  0  0  0  0  0
    1.2917   -3.0875    0.0000 O   0  0  0  0  0  0  0  0  0  0  0  0
    4.1042   -4.6917    0.0000 O   0  0  0  0  0  0  0  0  0  0  0  0
    6.2375   -1.1542    0.0000 O   0  0  0  0  0  0  0  0  0  0  0  0
    3.4667   -1.8917    0.0000 O   0  0  0  0  0  0  0  0  0  0  0  0
    0.5667   -4.3292    0.0000 C   0  0  0  0  0  0  0  0  0  0  0  0
    5.6042    1.6375    0.0000 O   0  0  0  0  0  0  0  0  0  0  0  0
    6.9542    0.0250    0.0000 C   0  0  0  0  0  0  0  0  0  0  0  0
    1.4625   -4.9042    0.0000 C   0  0  0  0  0  0  0  0  0  0  0  0
   -0.1458   -3.9167    0.0000 N   0  0  0  0  0  0  0  0  0  0  0  0
    6.9792    1.6083    0.0000 O   0  0  0  0  0  0  0  0  0  0  0  0
   -0.1458   -0.6000    0.0000 N   0  0  0  0  0  0  0  0  0  0  0  0
    2.0042   -7.6417    0.0000 N   0  0  0  0  0  0  0  0  0  0  0  0
    2.6292   -5.4542    0.0000 C   0  0  0  0  0  0  0  0  0  0  0  0
    1.8417   -5.6042    0.0000 C   0  0  0  0  0  0  0  0  0  0  0  0
    6.4292   -4.5167    0.0000 C   0  0  0  0  0  0  0  0  0  0  0  0
    7.6500    0.4083    0.0000 C   0  0  0  0  0  0  0  0  0  0  0  0
    4.2917    0.2958    0.0000 C   0  0  0  0  0  0  0  0  0  0  0  0
    3.2042   -1.2125    0.0000 C   0  0  0  0  0  0  0  0  0  0  0  0
    3.1417    0.1875    0.0000 C   0  0  0  0  0  0  0  0  0  0  0  0
    6.1875   -5.9417    0.0000 C   0  0  0  0  0  0  0  0  0  0  0  0
   -0.8625   -4.3292    0.0000 C   0  0  0  0  0  0  0  0  0  0  0  0
    0.5667   -5.1542    0.0000 C   0  0  0  0  0  0  0  0  0  0  0  0
    2.0042   -6.8167    0.0000 C   0  0  0  0  0  0  0  0  0  0  0  0
   -0.1458   -1.4292    0.0000 C   0  0  0  0  0  0  0  0  0  0  0  0
    7.0000    2.4333    0.0000 C   0  0  0  0  0  0  0  0  0  0  0  0
   -1.5833   -3.9167    0.0000 C   0  0  0  0  0  0  0  0  0  0  0  0
    1.2917   -6.4042    0.0000 C   0  0  0  0  0  0  0  0  0  0  0  0
   -0.8625   -1.8417    0.0000 C   0  0  0  0  0  0  0  0  0  0  0  0
    1.2917   -5.5750    0.0000 C   0  0  0  0  0  0  0  0  0  0  0  0
    7.6875    1.1833    0.0000 C   0  0  0  0  0  0  0  0  0  0  0  0
    8.3292   -0.0042    0.0000 C   0  0  0  0  0  0  0  0  0  0  0  0
   -1.5833   -3.0875    0.0000 C   0  0  0  0  0  0  0  0  0  0  0  0
   -0.8625   -2.6667    0.0000 C   0  0  0  0  0  0  0  0  0  0  0  0
    7.7250    2.8333    0.0000 C   0  0  0  0  0  0  0  0  0  0  0  0
    7.0292   -5.0292    0.0000 C   0  0  0  0  0  0  0  0  0  0  0  0
    6.9042   -5.7500    0.0000 C   0  0  0  0  0  0  0  0  0  0  0  0
  2  1  1  0
  8  3  1  1
  4  9  1  0
  5 17  1  0
  6  7  1  0
  7 14  1  0
  8  1  1  0
  9  6  1  0
 10  3  1  0
 11  4  1  0
 12 13  1  0
 13  5  2  0
 14 10  1  0
 15 11  1  0
 16  5  1  0
 14 17  1  6
 18 15  1  0
 19 16  2  0
  9 20  1  1
 21  2  2  0
 22  3  2  0
 23  4  2  0
 24  7  2  0
 25  2  1  0
 26 18  2  0
 15 27  1  6
 28  1  1  0
 29 25  1  0
 30 18  1  0
 31 44  1  0
 32 43  1  0
 33  8  1  0
 34 28  1  0
 35 16  1  0
 36 27  1  0
 37 20  1  0
 38 20  1  0
 39 20  1  0
 40 19  1  0
 41 29  1  0
 25 42  1  6
 43 47  1  0
 44 48  1  0
 45 30  1  0
 46 41  1  0
 47 49  1  0
 48 53  1  0
 49 42  1  0
 50 36  1  0
 51 36  1  0
 52 46  1  0
 53 52  1  0
 54 45  1  0
 55 35  2  0
 56 55  1  0
 34 33  1  0
 19 12  1  0
 40 56  2  0
M  END

> <chembl_id>
CHEMBL265671

> <chembl_pref_name>
None

$$$$

     RDKit          2D

 25 27  0  0  0  0  0  0  0  0999 V2000
    4.3167   -3.9792    0.0000 S   0  0  0  0  0  0  0  0  0  0  0  0
    5.0417   -4.3917    0.0000 N   0  0  0  0  0  0  0  0  0  0  0  0
    5.7542   -3.9750    0.0000 C   0  0  0  0  0  0  0  0  0  0  0  0
    4.3167   -3.1500    0.0000 C   0  0  0  0  0  0  0  0  0  0  0  0
    7.1917   -3.9625    0.0000 N   0  0  0  0  0  0  0  0  0  0  0  0
    6.4792   -4.3792    0.0000 C   0  0  0  0  0  0  0  0  0  0  0  0
    5.7417   -3.1417    0.0000 N   0  0  0  0  0  0  0  0  0  0  0  0
    3.6042   -2.7292    0.0000 C   0  0  0  0  0  0  0  0  0  0  0  0
    3.6042   -1.9042    0.0000 C   0  0  0  0  0  0  0  0  0  0  0  0
    3.4917   -3.9750    0.0000 O   0  0  0  0  0  0  0  0  0  0  0  0
    4.3167   -4.8125    0.0000 O   0  0  0  0  0  0  0  0  0  0  0  0
    7.1917   -3.1292    0.0000 C   0  0  0  0  0  0  0  0  0  0  0  0
    2.8875   -1.4875    0.0000 C   0  0  0  0  0  0  0  0  0  0  0  0
    6.4667   -2.7167    0.0000 C   0  0  0  0  0  0  0  0  0  0  0  0
    2.8875   -0.6542    0.0000 N   0  0  0  0  0  0  0  0  0  0  0  0
    6.4875   -5.2042    0.0000 O   0  0  0  0  0  0  0  0  0  0  0  0
    7.9042   -2.7167    0.0000 Br  0  0  0  0  0  0  0  0  0  0  0  0
    5.0417   -2.7292    0.0000 C   0  0  0  0  0  0  0  0  0  0  0  0
    2.8875   -3.1500    0.0000 C   0  0  0  0  0  0  0  0  0  0  0  0
    4.3167   -1.4875    0.0000 C   0  0  0  0  0  0  0  0  0  0  0  0
    5.0417   -1.9042    0.0000 C   0  0  0  0  0  0  0  0  0  0  0  0
    2.1750   -2.7292    0.0000 C   0  0  0  0  0  0  0  0  0  0  0  0
    2.1750   -1.9042    0.0000 C   0  0  0  0  0  0  0  0  0  0  0  0
    3.6042   -0.2417    0.0000 C   0  0  0  0  0  0  0  0  0  0  0  0
    7.2042   -5.6250    0.0000 C   0  0  0  0  0  0  0  0  0  0  0  0
  2  1  1  0
  3  2  1  0
  4  1  1  0
  5  6  2  0
  6  3  1  0
  7  3  2  0
  8  4  1  0
  9  8  2  0
 10  1  2  0
 11  1  2  0
 12 14  2  0
 13  9  1  0
 14  7  1  0
 15 13  1  0
 16  6  1  0
 17 12  1  0
 18  4  2  0
 19  8  1  0
 20 21  2  0
 21 18  1  0
 22 19  2  0
 23 22  1  0
 24 15  1  0
 25 16  1  0
 20  9  1  0
 23 13  2  0
 12  5  1  0
M  END

> <chembl_id>
CHEMBL6555

> <chembl_pref_name>
None

$$$$

     RDKit          2D

 26 28  0  0  0  0  0  0  0  0999 V2000
    4.4042   -3.9667    0.0000 S   0  0  0  0  0  0  0  0  0  0  0  0
    5.1250   -4.3792    0.0000 N   0  0  0  0  0  0  0  0  0  0  0  0
    5.8375   -3.9542    0.0000 C   0  0  0  0  0  0  0  0  0  0  0  0
    4.4042   -3.1292    0.0000 C   0  0  0  0  0  0  0  0  0  0  0  0
    6.5625   -4.3667    0.0000 C   0  0  0  0  0  0  0  0  0  0  0  0
    3.6875   -2.7250    0.0000 C   0  0  0  0  0  0  0  0  0  0  0  0
    5.8167   -3.1167    0.0000 N   0  0  0  0  0  0  0  0  0  0  0  0
    3.6875   -1.8917    0.0000 C   0  0  0  0  0  0  0  0  0  0  0  0
    7.2667   -3.9417    0.0000 N   0  0  0  0  0  0  0  0  0  0  0  0
    2.9667   -1.4792    0.0000 C   0  0  0  0  0  0  0  0  0  0  0  0
    3.5667   -3.9542    0.0000 O   0  0  0  0  0  0  0  0  0  0  0  0
    4.4042   -4.7917    0.0000 O   0  0  0  0  0  0  0  0  0  0  0  0
    2.9667   -0.6417    0.0000 N   0  0  0  0  0  0  0  0  0  0  0  0
    7.2667   -3.1167    0.0000 C   0  0  0  0  0  0  0  0  0  0  0  0
    6.5500   -2.7042    0.0000 C   0  0  0  0  0  0  0  0  0  0  0  0
    6.5667   -5.2000    0.0000 O   0  0  0  0  0  0  0  0  0  0  0  0
    5.1250   -2.7167    0.0000 C   0  0  0  0  0  0  0  0  0  0  0  0
    2.9667   -3.1417    0.0000 C   0  0  0  0  0  0  0  0  0  0  0  0
    4.4042   -1.4667    0.0000 C   0  0  0  0  0  0  0  0  0  0  0  0
    2.2542   -1.8917    0.0000 C   0  0  0  0  0  0  0  0  0  0  0  0
    5.1250   -1.8875    0.0000 C   0  0  0  0  0  0  0  0  0  0  0  0
    2.2542   -2.7250    0.0000 C   0  0  0  0  0  0  0  0  0  0  0  0
    2.2375   -0.2292    0.0000 C   0  0  0  0  0  0  0  0  0  0  0  0
    3.6875   -0.2167    0.0000 C   0  0  0  0  0  0  0  0  0  0  0  0
    7.9875   -2.7000    0.0000 C   0  0  0  0  0  0  0  0  0  0  0  0
    7.2875   -5.6042    0.0000 C   0  0  0  0  0  0  0  0  0  0  0  0
  2  1  1  0
  3  2  1  0
  4  1  1  0
  5  3  1  0
  6  4  1  0
  7  3  2  0
  8  6  2  0
  9  5  2  0
 10  8  1  0
 11  1  2  0
 12  1  2  0
 13 10  1  0
 14 15  2  0
 15  7  1  0
 16  5  1  0
 17  4  2  0
 18  6  1  0
 19 21  2  0
 20 22  1  0
 21 17  1  0
 22 18  2  0
 23 13  1  0
 24 13  1  0
 25 14  1  0
 26 16  1  0
 19  8  1  0
 20 10  2  0
 14  9  1  0
M  END

> <chembl_id>
CHEMBL268174

> <chembl_pref_name>
None

$$$$

     RDKit          2D

108109  0  0  1  0  0  0  0  0999 V2000
   16.4417   -4.4917    0.0000 C   0  0  0  0  0  0  0  0  0  0  0  0
   20.7417   -4.4917    0.0000 C   0  0  0  0  0  0  0  0  0  0  0  0
   19.3042   -4.4917    0.0000 N   0  0  0  0  0  0  0  0  0  0  0  0
   15.0125   -4.4917    0.0000 N   0  0  0  0  0  0  0  0  0  0  0  0
   18.5917   -4.0667    0.0000 C   0  0  0  0  0  0  0  0  0  0  0  0
    5.7042   -4.0667    0.0000 C   0  0  0  0  0  0  0  0  0  0  0  0
   22.8917   -4.0667    0.0000 C   0  0  0  0  0  0  0  0  0  0  0  0
   14.2917   -4.0667    0.0000 C   0  0  0  0  0  0  0  0  0  0  0  0
    3.5500   -4.4917    0.0000 C   0  0  0  0  0  0  0  0  0  0  0  0
    1.4042   -4.0667    0.0000 C   0  0  0  0  0  0  0  0  0  0  0  0
   17.1542   -4.0667    0.0000 N   0  0  0  0  0  0  0  0  0  0  0  0
   21.4542   -4.0667    0.0000 N   0  0  0  0  0  0  0  0  0  0  0  0
   12.1417   -4.4917    0.0000 C   0  0  0  0  0  0  0  0  0  0  0  0
    4.2667   -4.0667    0.0000 N   0  0  0  0  0  0  0  0  0  0  0  0
   17.8792   -4.4917    0.0000 C   0  0  0  0  0  0  0  0  0  0  0  0
   22.1750   -4.4917    0.0000 C   0  0  0  0  0  0  0  0  0  0  0  0
    4.9875   -4.4917    0.0000 C   0  0  0  0  0  0  0  0  0  0  0  0
   -0.7375   -4.4792    0.0000 C   0  0  0  0  0  0  0  0  0  0  0  0
    6.4167   -4.4917    0.0000 N   0  0  0  0  0  0  0  0  0  0  0  0
    2.1167   -4.4917    0.0000 N   0  0  0  0  0  0  0  0  0  0  0  0
   15.7292   -4.0667    0.0000 C   0  0  0  0  0  0  0  0  0  0  0  0
   20.0250   -4.0667    0.0000 C   0  0  0  0  0  0  0  0  0  0  0  0
   -0.0208   -4.0667    0.0000 N   0  0  0  0  0  0  0  0  0  0  0  0
   23.6042   -4.4917    0.0000 N   0  0  0  0  0  0  0  0  0  0  0  0
   12.8625   -4.0667    0.0000 N   0  0  0  0  0  0  0  0  0  0  0  0
    7.1292   -4.0667    0.0000 C   0  0  0  0  0  0  0  0  0  0  0  0
    7.1292   -3.2417    0.0000 C   0  0  0  0  0  0  0  0  0  0  0  0
    7.8500   -4.4917    0.0000 C   0  0  0  0  0  0  0  0  0  0  0  0
    2.8375   -4.0667    0.0000 C   0  0  0  0  0  0  0  0  0  0  0  0
    0.6917   -4.4875    0.0000 C   0  0  0  0  0  0  0  0  0  0  0  0
   25.7542   -0.7667    0.0000 C   0  0  0  0  0  0  0  0  0  0  0  0
   15.0125   -7.7917    0.0000 C   0  0  0  0  0  0  0  0  0  0  0  0
   25.0375   -4.4917    0.0000 C   0  0  0  0  0  0  0  0  0  0  0  0
   10.7167   -4.4917    0.0000 N   0  0  0  0  0  0  0  0  0  0  0  0
    7.8500   -2.8375    0.0000 C   0  0  0  0  0  0  0  0  0  0  0  0
   10.0000   -4.0667    0.0000 C   0  0  0  0  0  0  0  0  0  0  0  0
    8.5667   -4.0667    0.0000 N   0  0  0  0  0  0  0  0  0  0  0  0
   13.5792   -4.4917    0.0000 C   0  0  0  0  0  0  0  0  0  0  0  0
   11.4292   -4.0667    0.0000 C   0  0  0  0  0  0  0  0  0  0  0  0
   24.3167   -4.0667    0.0000 C   0  0  0  0  0  0  0  0  0  0  0  0
   26.4667   -0.3542    0.0000 N   0  0  0  0  0  0  0  0  0  0  0  0
   15.7292   -8.2125    0.0000 N   0  0  0  0  0  0  0  0  0  0  0  0
   20.7417   -5.3167    0.0000 O   0  0  0  0  0  0  0  0  0  0  0  0
   16.4417   -5.3167    0.0000 O   0  0  0  0  0  0  0  0  0  0  0  0
   18.5917   -3.2417    0.0000 O   0  0  0  0  0  0  0  0  0  0  0  0
    5.7042   -3.2417    0.0000 O   0  0  0  0  0  0  0  0  0  0  0  0
   22.8917   -3.2417    0.0000 O   0  0  0  0  0  0  0  0  0  0  0  0
   14.2917   -3.2417    0.0000 O   0  0  0  0  0  0  0  0  0  0  0  0
    1.4042   -3.2500    0.0000 O   0  0  0  0  0  0  0  0  0  0  0  0
    3.5500   -5.3167    0.0000 O   0  0  0  0  0  0  0  0  0  0  0  0
   12.1417   -5.3167    0.0000 O   0  0  0  0  0  0  0  0  0  0  0  0
   -0.7375   -5.3042    0.0000 O   0  0  0  0  0  0  0  0  0  0  0  0
    2.8375   -3.2417    0.0000 C   0  0  0  0  0  0  0  0  0  0  0  0
    0.6875   -5.3125    0.0000 C   0  0  0  0  0  0  0  0  0  0  0  0
    7.8500   -5.3167    0.0000 O   0  0  0  0  0  0  0  0  0  0  0  0
   25.0375   -5.3167    0.0000 O   0  0  0  0  0  0  0  0  0  0  0  0
    8.5667   -3.2417    0.0000 O   0  0  0  0  0  0  0  0  0  0  0  0
   10.0000   -3.2417    0.0000 O   0  0  0  0  0  0  0  0  0  0  0  0
   -1.4500   -4.0667    0.0000 C   0  0  0  0  0  0  0  0  0  0  0  0
   15.0125   -6.9667    0.0000 N   0  0  0  0  0  0  0  0  0  0  0  0
   25.7542   -1.5917    0.0000 N   0  0  0  0  0  0  0  0  0  0  0  0
    9.2792   -4.4917    0.0000 C   0  0  0  0  0  0  0  0  0  0  0  0
   25.0375   -0.3542    0.0000 N   0  0  0  0  0  0  0  0  0  0  0  0
   14.2917   -8.2125    0.0000 N   0  0  0  0  0  0  0  0  0  0  0  0
   25.7542   -4.0667    0.0000 N   0  0  0  0  0  0  0  0  0  0  0  0
   20.0250   -3.2417    0.0000 C   0  0  0  0  0  0  0  0  0  0  0  0
   15.7292   -3.2417    0.0000 C   0  0  0  0  0  0  0  0  0  0  0  0
    7.8500   -2.0042    0.0000 N   0  0  0  0  0  0  0  0  0  0  0  0
    2.4167   -2.5292    0.0000 C   0  0  0  0  0  0  0  0  0  0  0  0
    0.9875   -1.7000    0.0000 C   0  0  0  0  0  0  0  0  0  0  0  0
   -2.1708   -4.4792    0.0000 N   0  0  0  0  0  0  0  0  0  0  0  0
   18.5917   -5.7292    0.0000 S   0  0  0  0  0  0  0  0  0  0  0  0
    5.7042   -5.7292    0.0000 S   0  0  0  0  0  0  0  0  0  0  0  0
   22.8917   -5.7292    0.0000 S   0  0  0  0  0  0  0  0  0  0  0  0
   17.8792   -5.3167    0.0000 C   0  0  0  0  0  0  0  0  0  0  0  0
   22.1750   -5.3167    0.0000 C   0  0  0  0  0  0  0  0  0  0  0  0
    4.9875   -5.3167    0.0000 C   0  0  0  0  0  0  0  0  0  0  0  0
    0.2667   -6.0250    0.0000 C   0  0  0  0  0  0  0  0  0  0  0  0
    1.7042   -2.9375    0.0000 C   0  0  0  0  0  0  0  0  0  0  0  0
    2.4167   -1.7000    0.0000 C   0  0  0  0  0  0  0  0  0  0  0  0
   -2.8750   -0.7667    0.0000 N   0  0  0  0  0  0  0  0  0  0  0  0
   12.8625   -0.7667    0.0000 N   0  0  0  0  0  0  0  0  0  0  0  0
    0.9875   -2.5292    0.0000 C   0  0  0  0  0  0  0  0  0  0  0  0
    1.7042   -1.2875    0.0000 C   0  0  0  0  0  0  0  0  0  0  0  0
    0.2750   -1.2875    0.0000 O   0  0  0  0  0  0  0  0  0  0  0  0
   13.5792   -5.3167    0.0000 C   0  0  0  0  0  0  0  0  0  0  0  0
   11.4292   -3.2417    0.0000 C   0  0  0  0  0  0  0  0  0  0  0  0
   24.3167   -3.2417    0.0000 C   0  0  0  0  0  0  0  0  0  0  0  0
   14.2917   -6.5542    0.0000 C   0  0  0  0  0  0  0  0  0  0  0  0
   25.0375   -2.0042    0.0000 C   0  0  0  0  0  0  0  0  0  0  0  0
   -1.4500   -3.2417    0.0000 C   0  0  0  0  0  0  0  0  0  0  0  0
   12.8625   -1.5917    0.0000 C   0  0  0  0  0  0  0  0  0  0  0  0
   -2.8750   -1.5917    0.0000 C   0  0  0  0  0  0  0  0  0  0  0  0
   20.7417   -2.8375    0.0000 C   0  0  0  0  0  0  0  0  0  0  0  0
   19.3042   -2.8375    0.0000 C   0  0  0  0  0  0  0  0  0  0  0  0
   15.0125   -2.8375    0.0000 C   0  0  0  0  0  0  0  0  0  0  0  0
   16.4417   -2.8375    0.0000 C   0  0  0  0  0  0  0  0  0  0  0  0
   -0.5583   -6.0167    0.0000 C   0  0  0  0  0  0  0  0  0  0  0  0
    0.6750   -6.7292    0.0000 C   0  0  0  0  0  0  0  0  0  0  0  0
   25.0375   -2.8375    0.0000 C   0  0  0  0  0  0  0  0  0  0  0  0
   14.2917   -5.7292    0.0000 C   0  0  0  0  0  0  0  0  0  0  0  0
   12.1417   -2.8375    0.0000 C   0  0  0  0  0  0  0  0  0  0  0  0
   -2.1625   -2.0042    0.0000 C   0  0  0  0  0  0  0  0  0  0  0  0
   12.1417   -2.0042    0.0000 C   0  0  0  0  0  0  0  0  0  0  0  0
   -2.1625   -2.8292    0.0000 C   0  0  0  0  0  0  0  0  0  0  0  0
    0.2625   -7.4417    0.0000 C   0  0  0  0  0  0  0  0  0  0  0  0
   -0.9750   -6.7292    0.0000 C   0  0  0  0  0  0  0  0  0  0  0  0
   -0.5708   -7.4417    0.0000 C   0  0  0  0  0  0  0  0  0  0  0  0
  2 22  1  0
  3  5  1  0
  4 21  1  0
  5 15  1  0
  6 19  1  0
  7 16  1  0
  8  4  1  0
  9 14  1  0
 10 20  1  0
 11  1  1  0
 12  2  1  0
 13 25  1  0
 14 17  1  0
 15 11  1  0
 16 12  1  0
 17  6  1  0
 18 23  1  0
 19 26  1  0
 20 29  1  0
 21  1  1  0
 22  3  1  0
 23 30  1  0
 24  7  1  0
 25 38  1  0
 26 28  1  0
 26 27  1  1
 28 37  1  0
 29  9  1  0
 30 10  1  0
 31 61  2  0
 32 60  2  0
 33 40  1  0
 34 39  1  0
 35 27  1  0
 36 34  1  0
 37 62  1  0
 38  8  1  0
 39 13  1  0
 40 24  1  0
 41 31  1  0
 42 32  1  0
 43  2  2  0
 44  1  2  0
 45  5  2  0
 46  6  2  0
 47  7  2  0
 48  8  2  0
 49 10  2  0
 50  9  2  0
 51 13  2  0
 52 18  2  0
 29 53  1  1
 30 54  1  6
 55 28  2  0
 56 33  2  0
 57 35  2  0
 58 36  2  0
 59 18  1  0
 60 89  1  0
 61 90  1  0
 62 36  1  0
 63 31  1  0
 64 32  1  0
 65 33  1  0
 22 66  1  1
 21 67  1  1
 68 35  1  0
 69 53  1  0
 70 84  2  0
 71 59  1  0
 72 75  1  0
 73 77  1  0
 74 76  1  0
 15 75  1  6
 16 76  1  6
 17 77  1  6
 78 54  1  0
 79 69  1  0
 80 69  2  0
 81 93  1  0
 82 92  1  0
 83 79  2  0
 84 80  1  0
 85 70  1  0
 38 86  1  6
 39 87  1  1
 40 88  1  1
 89101  1  0
 90100  1  0
 59 91  1  1
 92104  1  0
 93103  1  0
 94 66  1  0
 95 66  1  0
 96 67  1  0
 97 67  1  0
 98 78  2  0
 99 78  1  0
100 88  1  0
101 86  1  0
102 87  1  0
103105  1  0
104102  1  0
105 91  1  0
106 99  2  0
107 98  1  0
108106  1  0
 70 83  1  0
108107  2  0
M  END

> <chembl_id>
CHEMBL266306

> <chembl_pref_name>
None

$$$$

     RDKit          2D

 77 79  0  0  1  0  0  0  0  0999 V2000
    0.4292   -8.4625    0.0000 N   0  0  0  0  0  0  0  0  0  0  0  0
    0.1750   -7.6417    0.0000 C   0  0  0  0  0  0  0  0  0  0  0  0
    1.1917   -8.8250    0.0000 C   0  0  0  0  0  0  0  0  0  0  0  0
    6.9167   -5.0750    0.0000 N   0  0  0  0  0  0  0  0  0  0  0  0
    0.4542   -7.1750    0.0000 C   0  0  0  0  0  0  0  0  0  0  0  0
   -0.1708   -6.9500    0.0000 N   0  0  0  0  0  0  0  0  0  0  0  0
   -0.2333   -1.2292    0.0000 C   0  0  0  0  0  0  0  0  0  0  0  0
    2.1125   -9.6125    0.0000 N   0  0  0  0  0  0  0  0  0  0  0  0
    7.0292   -4.2292    0.0000 C   0  0  0  0  0  0  0  0  0  0  0  0
    0.4042   -0.6625    0.0000 N   0  0  0  0  0  0  0  0  0  0  0  0
    3.7167   -8.5542    0.0000 N   0  0  0  0  0  0  0  0  0  0  0  0
    2.4875   -8.8625    0.0000 C   0  0  0  0  0  0  0  0  0  0  0  0
    2.7792    0.1333    0.0000 N   0  0  0  0  0  0  0  0  0  0  0  0
    1.9417    0.0333    0.0000 C   0  0  0  0  0  0  0  0  0  0  0  0
   -0.7458   -6.3667    0.0000 C   0  0  0  0  0  0  0  0  0  0  0  0
   -1.0958   -2.6875    0.0000 N   0  0  0  0  0  0  0  0  0  0  0  0
    6.9792   -3.3792    0.0000 C   0  0  0  0  0  0  0  0  0  0  0  0
    1.2625   -9.6667    0.0000 C   0  0  0  0  0  0  0  0  0  0  0  0
   -1.1958   -5.5625    0.0000 C   0  0  0  0  0  0  0  0  0  0  0  0
   -0.2583   -8.9542    0.0000 C   0  0  0  0  0  0  0  0  0  0  0  0
    6.7417   -2.5625    0.0000 N   0  0  0  0  0  0  0  0  0  0  0  0
    3.0792   -8.8792    0.0000 C   0  0  0  0  0  0  0  0  0  0  0  0
    6.6417   -5.8792    0.0000 C   0  0  0  0  0  0  0  0  0  0  0  0
    6.2042   -6.6167    0.0000 C   0  0  0  0  0  0  0  0  0  0  0  0
   -0.7333   -1.9167    0.0000 C   0  0  0  0  0  0  0  0  0  0  0  0
    4.4292   -0.1792    0.0000 C   0  0  0  0  0  0  0  0  0  0  0  0
   -0.9333   -8.4542    0.0000 S   0  0  0  0  0  0  0  0  0  0  0  0
   -1.4833   -4.7875    0.0000 N   0  0  0  0  0  0  0  0  0  0  0  0
    5.6292   -7.2500    0.0000 N   0  0  0  0  0  0  0  0  0  0  0  0
    5.1792   -0.5792    0.0000 N   0  0  0  0  0  0  0  0  0  0  0  0
    7.8042   -3.2375    0.0000 C   0  0  0  0  0  0  0  0  0  0  0  0
   -0.6708   -7.6417    0.0000 C   0  0  0  0  0  0  0  0  0  0  0  0
    4.6167   -8.0125    0.0000 C   0  0  0  0  0  0  0  0  0  0  0  0
    5.6875    3.1458    0.0000 C   0  0  0  0  0  0  0  0  0  0  0  0
    1.1292   -0.2375    0.0000 C   0  0  0  0  0  0  0  0  0  0  0  0
   -1.2958   -3.5167    0.0000 C   0  0  0  0  0  0  0  0  0  0  0  0
    6.3625   -1.7875    0.0000 C   0  0  0  0  0  0  0  0  0  0  0  0
    3.6250    0.0625    0.0000 C   0  0  0  0  0  0  0  0  0  0  0  0
    8.3500   -3.8917    0.0000 C   0  0  0  0  0  0  0  0  0  0  0  0
    6.4917    3.4333    0.0000 N   0  0  0  0  0  0  0  0  0  0  0  0
    1.6042   -8.0792    0.0000 O   0  0  0  0  0  0  0  0  0  0  0  0
    1.0167   -6.8000    0.0000 O   0  0  0  0  0  0  0  0  0  0  0  0
   -0.8583   -0.6542    0.0000 O   0  0  0  0  0  0  0  0  0  0  0  0
    7.8792   -4.2542    0.0000 O   0  0  0  0  0  0  0  0  0  0  0  0
    2.1750   -8.2042    0.0000 O   0  0  0  0  0  0  0  0  0  0  0  0
    1.7542    0.8708    0.0000 O   0  0  0  0  0  0  0  0  0  0  0  0
   -1.7958   -5.9125    0.0000 O   0  0  0  0  0  0  0  0  0  0  0  0
    6.8792   -7.1292    0.0000 O   0  0  0  0  0  0  0  0  0  0  0  0
    4.7542    0.6125    0.0000 O   0  0  0  0  0  0  0  0  0  0  0  0
    0.5792  -10.1542    0.0000 C   0  0  0  0  0  0  0  0  0  0  0  0
   -0.1833   -9.8042    0.0000 C   0  0  0  0  0  0  0  0  0  0  0  0
    5.1625   -7.6792    0.0000 C   0  0  0  0  0  0  0  0  0  0  0  0
   -1.4208   -4.1750    0.0000 C   0  0  0  0  0  0  0  0  0  0  0  0
    5.8375   -1.1292    0.0000 C   0  0  0  0  0  0  0  0  0  0  0  0
    5.0167   -8.6750    0.0000 O   0  0  0  0  0  0  0  0  0  0  0  0
    7.0750   -1.3292    0.0000 O   0  0  0  0  0  0  0  0  0  0  0  0
   -2.1333   -3.4042    0.0000 O   0  0  0  0  0  0  0  0  0  0  0  0
    9.1792   -3.7417    0.0000 O   0  0  0  0  0  0  0  0  0  0  0  0
    5.5375    2.3083    0.0000 N   0  0  0  0  0  0  0  0  0  0  0  0
    5.0500    3.7083    0.0000 N   0  0  0  0  0  0  0  0  0  0  0  0
    7.4042   -6.2500    0.0000 C   0  0  0  0  0  0  0  0  0  0  0  0
   -1.4583   -1.4750    0.0000 C   0  0  0  0  0  0  0  0  0  0  0  0
    3.0250   -9.5375    0.0000 O   0  0  0  0  0  0  0  0  0  0  0  0
    8.3542   -4.8917    0.0000 O   0  0  0  0  0  0  0  0  0  0  0  0
   -1.1958   -6.8167    0.0000 C   0  0  0  0  0  0  0  0  0  0  0  0
   -1.8583   -6.9542    0.0000 O   0  0  0  0  0  0  0  0  0  0  0  0
    3.7792    0.9083    0.0000 C   0  0  0  0  0  0  0  0  0  0  0  0
    0.7917    0.5458    0.0000 C   0  0  0  0  0  0  0  0  0  0  0  0
    4.7292    2.0333    0.0000 C   0  0  0  0  0  0  0  0  0  0  0  0
   -1.4458   -0.6167    0.0000 C   0  0  0  0  0  0  0  0  0  0  0  0
    7.4792   -7.1000    0.0000 C   0  0  0  0  0  0  0  0  0  0  0  0
    8.1042   -5.7542    0.0000 C   0  0  0  0  0  0  0  0  0  0  0  0
   -2.1958   -1.8917    0.0000 C   0  0  0  0  0  0  0  0  0  0  0  0
    4.5792    1.1875    0.0000 C   0  0  0  0  0  0  0  0  0  0  0  0
   -1.1307   -9.4429    0.0000 H   0  0  0  0  0  0  0  0  0  0  0  0
    1.5976  -10.6089    0.0000 H   0  0  0  0  0  0  0  0  0  0  0  0
   -0.3183   -6.7718    0.0000 H   0  0  0  0  0  0  0  0  0  0  0  0
  2  1  1  0
  3  1  1  0
  4 23  1  0
  2  5  1  0
  6  5  1  0
  7 25  1  0
 18  8  1  0
  9  4  1  0
 10  7  1  0
 11 22  1  0
 12  8  1  0
 13 14  1  0
 14 35  1  0
 15  6  1  0
 16 36  1  0
 17  9  1  0
 18  3  1  0
 19 15  1  0
 20  1  1  0
 21 17  1  0
 22 12  1  0
 23 24  1  0
 24 29  1  0
 25 16  1  0
 26 38  1  0
 27 20  1  0
 28 19  1  0
 29 52  1  0
 30 54  1  0
 17 31  1  1
 32  2  1  0
 33 11  1  0
 34 59  2  0
 35 10  1  0
 36 53  1  0
 37 21  1  0
 38 13  1  0
 39 31  1  0
 40 34  1  0
 41  3  2  0
 42  5  2  0
 43  7  2  0
 44  9  2  0
 45 12  2  0
 46 14  2  0
 47 19  2  0
 48 24  2  0
 49 26  2  0
 50 51  1  0
 51 20  1  0
 52 33  1  0
 53 28  1  0
 54 37  1  0
 55 33  2  0
 56 37  2  0
 57 36  2  0
 58 39  2  0
 59 69  1  0
 60 34  1  0
 23 61  1  6
 25 62  1  1
 22 63  1  6
 64 39  1  0
 15 65  1  1
 66 65  1  0
 38 67  1  1
 35 68  1  6
 69 74  1  0
 70 62  1  0
 71 61  1  0
 72 61  1  0
 73 62  1  0
 74 67  1  0
 20 75  1  1
 27 32  1  0
 18 50  1  0
 30 26  1  0
 18 76  1  6
  2 77  1  6
M  END

> <chembl_id>
CHEMBL385851

> <chembl_pref_name>
None

$$$$

     RDKit          2D

 15 14  0  0  0  0  0  0  0  0999 V2000
    2.2875   -3.9125    0.0000 N   0  0  0  0  0  0  0  0  0  0  0  0
    2.2917   -3.0875    0.0000 N   0  0  0  0  0  0  0  0  0  0  0  0
    2.3917    0.8375    0.0000 P   0  0  0  0  0  0  0  0  0  0  0  0
    1.5792   -2.6750    0.0000 C   0  0  0  0  0  0  0  0  0  0  0  0
    1.5667   -4.3292    0.0000 O   0  0  0  0  0  0  0  0  0  0  0  0
    1.5917    0.6208    0.0000 C   0  0  0  0  0  0  0  0  0  0  0  0
    3.0000   -4.3375    0.0000 O   0  0  0  0  0  0  0  0  0  0  0  0
    2.3792    1.6625    0.0000 O   0  0  0  0  0  0  0  0  0  0  0  0
    1.5792   -1.8500    0.0000 N   0  0  0  0  0  0  0  0  0  0  0  0
    0.8625   -3.0792    0.0000 N   0  0  0  0  0  0  0  0  0  0  0  0
    3.1042    1.2583    0.0000 O   0  0  0  0  0  0  0  0  0  0  0  0
    0.8292    0.9375    0.0000 N   0  0  0  0  0  0  0  0  0  0  0  0
    1.5917   -0.2042    0.0000 C   0  0  0  0  0  0  0  0  0  0  0  0
    2.3000   -1.4417    0.0000 C   0  0  0  0  0  0  0  0  0  0  0  0
    2.3042   -0.6167    0.0000 C   0  0  0  0  0  0  0  0  0  0  0  0
  2  1  1  0
  3  6  1  0
  4  2  1  0
  5  1  1  0
  6 13  1  0
  7  1  2  0
  8  3  2  0
  9  4  2  0
 10  4  1  0
 11  3  1  0
 12  6  1  0
 13 15  1  0
 14  9  1  0
 15 14  1  0
M  CHG  2   1   1   5  -1
M  END

> <chembl_id>
CHEMBL6573

> <chembl_pref_name>
None

$$$$

     RDKit          2D

 16 18  0  0  0  0  0  0  0  0999 V2000
   -2.5000    1.3333    0.0000 C   0  0  0  0  0  0  0  0  0  0  0  0
   -1.6875    0.2708    0.0000 N   0  0  0  0  0  0  0  0  0  0  0  0
   -2.4833    0.5083    0.0000 C   0  0  0  0  0  0  0  0  0  0  0  0
   -1.7208    1.6083    0.0000 C   0  0  0  0  0  0  0  0  0  0  0  0
   -1.2208    0.9458    0.0000 C   0  0  0  0  0  0  0  0  0  0  0  0
   -3.2208    1.7250    0.0000 C   0  0  0  0  0  0  0  0  0  0  0  0
   -3.1833    0.0833    0.0000 C   0  0  0  0  0  0  0  0  0  0  0  0
   -3.9333    1.2958    0.0000 C   0  0  0  0  0  0  0  0  0  0  0  0
   -3.9125    0.4833    0.0000 C   0  0  0  0  0  0  0  0  0  0  0  0
   -0.0708    1.7958    0.0000 N   0  0  0  0  0  0  0  0  0  0  0  0
   -3.2250    2.5500    0.0000 Br  0  0  0  0  0  0  0  0  0  0  0  0
   -0.4000    1.0333    0.0000 C   0  0  0  0  0  0  0  0  0  0  0  0
   -1.3958    2.3708    0.0000 C   0  0  0  0  0  0  0  0  0  0  0  0
   -4.6208    0.0583    0.0000 O   0  0  0  0  0  0  0  0  0  0  0  0
   -0.5625    2.4625    0.0000 C   0  0  0  0  0  0  0  0  0  0  0  0
   -4.6000   -0.7667    0.0000 C   0  0  0  0  0  0  0  0  0  0  0  0
  2  3  1  0
  3  1  1  0
  4  1  1  0
  5  4  2  0
  6  1  2  0
  7  3  2  0
  8  6  1  0
  9  8  2  0
 10 15  1  0
 11  6  1  0
 12  5  1  0
 13  4  1  0
 14  9  1  0
 15 13  1  0
 16 14  1  0
  5  2  1  0
  9  7  1  0
 10 12  1  0
M  END

> <chembl_id>
CHEMBL268691

> <chembl_pref_name>
None

$$$$

     RDKit          2D

 23 24  0  0  0  0  0  0  0  0999 V2000
    3.4792   -2.3792    0.0000 C   0  0  0  0  0  0  0  0  0  0  0  0
    2.0542   -3.2125    0.0000 C   0  0  0  0  0  0  0  0  0  0  0  0
    2.7667   -3.6250    0.0000 C   0  0  0  0  0  0  0  0  0  0  0  0
    2.0542   -2.3875    0.0000 C   0  0  0  0  0  0  0  0  0  0  0  0
    5.6250   -1.9625    0.0000 C   0  0  0  0  0  0  0  0  0  0  0  0
    4.1917   -1.9667    0.0000 C   0  0  0  0  0  0  0  0  0  0  0  0
    3.4792   -3.2125    0.0000 C   0  0  0  0  0  0  0  0  0  0  0  0
    2.7667   -1.9667    0.0000 C   0  0  0  0  0  0  0  0  0  0  0  0
    4.9125   -2.3750    0.0000 C   0  0  0  0  0  0  0  0  0  0  0  0
    5.6167   -1.1417    0.0000 C   0  0  0  0  0  0  0  0  0  0  0  0
    6.3250   -0.7250    0.0000 C   0  0  0  0  0  0  0  0  0  0  0  0
    7.0500   -1.1292    0.0000 C   0  0  0  0  0  0  0  0  0  0  0  0
    6.3375   -2.3750    0.0000 C   0  0  0  0  0  0  0  0  0  0  0  0
    7.0500   -1.9542    0.0000 C   0  0  0  0  0  0  0  0  0  0  0  0
    1.3417   -1.9750    0.0000 I   0  0  0  0  0  0  0  0  0  0  0  0
    2.7667   -4.4417    0.0000 I   0  0  0  0  0  0  0  0  0  0  0  0
    1.3417   -3.6167    0.0000 O   0  0  0  0  0  0  0  0  0  0  0  0
    6.3167    0.1000    0.0000 I   0  0  0  0  0  0  0  0  0  0  0  0
    7.7542   -0.7167    0.0000 O   0  0  0  0  0  0  0  0  0  0  0  0
    4.1917   -1.1417    0.0000 C   0  0  0  0  0  0  0  0  0  0  0  0
    4.9125   -3.2000    0.0000 C   0  0  0  0  0  0  0  0  0  0  0  0
    5.6292   -3.6125    0.0000 C   0  0  0  0  0  0  0  0  0  0  0  0
    3.4750   -0.7292    0.0000 C   0  0  0  0  0  0  0  0  0  0  0  0
  2  4  2  0
  3  7  2  0
  4  8  1  0
  5  9  1  0
  6  1  1  0
  7  1  1  0
  8  1  2  0
  9  6  1  0
 10  5  1  0
 11 10  2  0
 12 14  2  0
 13  5  2  0
 14 13  1  0
 15  4  1  0
 16  3  1  0
 17  2  1  0
 18 11  1  0
 19 12  1  0
 20  6  1  0
 21  9  1  0
 22 21  1  0
 23 20  1  0
  2  3  1  0
 12 11  1  0
M  END

> <chembl_id>
CHEMBL414199

> <chembl_pref_name>
None

$$$$

     RDKit          2D

 20 21  0  0  0  0  0  0  0  0999 V2000
    0.3572   -2.2688    0.0000 C   0  0  0  0  0  0  0  0  0  0  0  0
   -0.3572   -2.6813    0.0000 C   0  0  0  0  0  0  0  0  0  0  0  0
   -1.0717   -2.2688    0.0000 C   0  0  0  0  0  0  0  0  0  0  0  0
   -1.0717   -1.4438    0.0000 C   0  0  0  0  0  0  0  0  0  0  0  0
   -0.3572   -1.0313    0.0000 C   0  0  0  0  0  0  0  0  0  0  0  0
   -0.3572   -3.5063    0.0000 O   0  0  0  0  0  0  0  0  0  0  0  0
    0.3572   -1.4438    0.0000 C   0  0  0  0  0  0  0  0  0  0  0  0
   -0.3572   -0.2063    0.0000 C   0  0  0  0  0  0  0  0  0  0  0  0
   -1.0717    0.2062    0.0000 C   0  0  0  0  0  0  0  0  0  0  0  0
   -1.0717    1.0312    0.0000 C   0  0  0  0  0  0  0  0  0  0  0  0
    0.3572    0.2062    0.0000 C   0  0  0  0  0  0  0  0  0  0  0  0
    1.0717   -0.2063    0.0000 C   0  0  0  0  0  0  0  0  0  0  0  0
    1.0717   -1.0313    0.0000 C   0  0  0  0  0  0  0  0  0  0  0  0
    0.3572    1.0312    0.0000 C   0  0  0  0  0  0  0  0  0  0  0  0
    1.0717    1.4437    0.0000 C   0  0  0  0  0  0  0  0  0  0  0  0
    1.0717    2.2687    0.0000 C   0  0  0  0  0  0  0  0  0  0  0  0
    0.3572    2.6812    0.0000 C   0  0  0  0  0  0  0  0  0  0  0  0
    0.3572    3.5062    0.0000 O   0  0  0  0  0  0  0  0  0  0  0  0
   -0.3572    2.2687    0.0000 C   0  0  0  0  0  0  0  0  0  0  0  0
   -0.3572    1.4437    0.0000 C   0  0  0  0  0  0  0  0  0  0  0  0
  1  2  2  0
  7  1  1  0
  2  3  1  0
  2  6  1  0
  3  4  2  0
  4  5  1  0
  7  5  2  0
  5  8  1  0
  8  9  1  0
  8 11  1  0
  9 10  1  0
 12 11  1  0
 11 14  1  0
 12 13  1  0
 15 14  2  0
 20 14  1  0
 16 15  1  0
 17 16  2  0
 17 18  1  0
 19 17  1  0
 20 19  2  0
M  END

> <chembl_id>
CHEMBL6615

> <chembl_pref_name>
HEXESTROL

$$$$

     RDKit          2D

 14 16  0  0  0  0  0  0  0  0999 V2000
    5.9042   -1.7417    0.0000 N   0  0  0  0  0  0  0  0  0  0  0  0
    6.3667   -1.0750    0.0000 C   0  0  0  0  0  0  0  0  0  0  0  0
    5.1042   -1.5042    0.0000 C   0  0  0  0  0  0  0  0  0  0  0  0
    5.8750   -0.4125    0.0000 C   0  0  0  0  0  0  0  0  0  0  0  0
    5.0917   -0.6792    0.0000 C   0  0  0  0  0  0  0  0  0  0  0  0
    4.4042   -1.9375    0.0000 C   0  0  0  0  0  0  0  0  0  0  0  0
    4.3667   -0.2917    0.0000 C   0  0  0  0  0  0  0  0  0  0  0  0
    7.5250   -0.2167    0.0000 N   0  0  0  0  0  0  0  0  0  0  0  0
    3.6792   -1.5375    0.0000 C   0  0  0  0  0  0  0  0  0  0  0  0
    7.1917   -0.9750    0.0000 C   0  0  0  0  0  0  0  0  0  0  0  0
    3.6667   -0.7167    0.0000 C   0  0  0  0  0  0  0  0  0  0  0  0
    6.1917    0.3500    0.0000 C   0  0  0  0  0  0  0  0  0  0  0  0
    2.9625   -1.9417    0.0000 Br  0  0  0  0  0  0  0  0  0  0  0  0
    7.0125    0.4583    0.0000 C   0  0  0  0  0  0  0  0  0  0  0  0
  2  1  1  0
  3  1  1  0
  4  2  2  0
  5  3  1  0
  6  3  2  0
  7  5  2  0
  8 10  1  0
  9  6  1  0
 10  2  1  0
 11  9  2  0
 12  4  1  0
 13  9  1  0
 14  8  1  0
  5  4  1  0
 11  7  1  0
 12 14  1  0
M  END

> <chembl_id>
CHEMBL441891

> <chembl_pref_name>
None

$$$$

     RDKit          2D

 14 16  0  0  0  0  0  0  0  0999 V2000
   -1.6875    0.2708    0.0000 N   0  0  0  0  0  0  0  0  0  0  0  0
   -1.2208    0.9458    0.0000 C   0  0  0  0  0  0  0  0  0  0  0  0
   -1.7208    1.6083    0.0000 C   0  0  0  0  0  0  0  0  0  0  0  0
   -2.4833    0.5083    0.0000 C   0  0  0  0  0  0  0  0  0  0  0  0
   -2.5000    1.3333    0.0000 C   0  0  0  0  0  0  0  0  0  0  0  0
   -0.0708    1.7958    0.0000 N   0  0  0  0  0  0  0  0  0  0  0  0
   -0.4000    1.0333    0.0000 C   0  0  0  0  0  0  0  0  0  0  0  0
   -1.4083   -0.5042    0.0000 C   0  0  0  0  0  0  0  0  0  0  0  0
   -1.3958    2.3708    0.0000 C   0  0  0  0  0  0  0  0  0  0  0  0
   -3.1833    0.0833    0.0000 C   0  0  0  0  0  0  0  0  0  0  0  0
   -3.2208    1.7250    0.0000 C   0  0  0  0  0  0  0  0  0  0  0  0
   -0.5625    2.4625    0.0000 C   0  0  0  0  0  0  0  0  0  0  0  0
   -3.9333    1.2958    0.0000 C   0  0  0  0  0  0  0  0  0  0  0  0
   -3.9125    0.4833    0.0000 C   0  0  0  0  0  0  0  0  0  0  0  0
  2  1  1  0
  3  2  2  0
  4  1  1  0
  5  4  1  0
  6  7  1  0
  7  2  1  0
  8  1  1  0
  9  3  1  0
 10  4  2  0
 11  5  2  0
 12  6  1  0
 13 14  2  0
 14 10  1  0
  5  3  1  0
 13 11  1  0
  9 12  1  0
M  END

> <chembl_id>
CHEMBL263883

> <chembl_pref_name>
None

$$$$

     RDKit          2D

 20 22  0  0  0  0  0  0  0  0999 V2000
    3.4042   -6.6917    0.0000 C   0  0  0  0  0  0  0  0  0  0  0  0
    4.6792   -7.0917    0.0000 C   0  0  0  0  0  0  0  0  0  0  0  0
    4.1875   -6.4292    0.0000 C   0  0  0  0  0  0  0  0  0  0  0  0
    4.1917   -7.7667    0.0000 S   0  0  0  0  0  0  0  0  0  0  0  0
    2.6875   -6.2792    0.0000 C   0  0  0  0  0  0  0  0  0  0  0  0
    3.4042   -7.5167    0.0000 C   0  0  0  0  0  0  0  0  0  0  0  0
    5.5042   -7.0917    0.0000 C   0  0  0  0  0  0  0  0  0  0  0  0
    2.6792   -5.4542    0.0000 S   0  0  0  0  0  0  0  0  0  0  0  0
    1.9750   -6.6917    0.0000 N   0  0  0  0  0  0  0  0  0  0  0  0
    5.9125   -6.3750    0.0000 O   0  0  0  0  0  0  0  0  0  0  0  0
    2.1167   -4.8542    0.0000 C   0  0  0  0  0  0  0  0  0  0  0  0
    2.6875   -7.9292    0.0000 C   0  0  0  0  0  0  0  0  0  0  0  0
    5.9167   -7.8042    0.0000 N   0  0  0  0  0  0  0  0  0  0  0  0
    1.9750   -7.5167    0.0000 C   0  0  0  0  0  0  0  0  0  0  0  0
    0.9917   -3.6542    0.0000 C   0  0  0  0  0  0  0  0  0  0  0  0
    2.3542   -4.0667    0.0000 C   0  0  0  0  0  0  0  0  0  0  0  0
    1.3167   -5.0500    0.0000 C   0  0  0  0  0  0  0  0  0  0  0  0
    0.7542   -4.4542    0.0000 C   0  0  0  0  0  0  0  0  0  0  0  0
    1.7917   -3.4667    0.0000 C   0  0  0  0  0  0  0  0  0  0  0  0
    0.4250   -3.0625    0.0000 C   0  0  0  0  0  0  0  0  0  0  0  0
  2  3  2  0
  3  1  1  0
  4  6  1  0
  5  1  1  0
  6  1  2  0
  7  2  1  0
  8  5  1  0
  9  5  2  0
 10  7  2  0
 11  8  1  0
 12  6  1  0
 13  7  1  0
 14 12  2  0
 15 18  1  0
 16 11  2  0
 17 11  1  0
 18 17  2  0
 19 16  1  0
 20 15  1  0
  4  2  1  0
  9 14  1  0
 19 15  2  0
M  END

> <chembl_id>
CHEMBL266798

> <chembl_pref_name>
None

$$$$

     RDKit          2D

 19 21  0  0  0  0  0  0  0  0999 V2000
    3.6542   -5.7625    0.0000 C   0  0  0  0  0  0  0  0  0  0  0  0
    3.6625   -6.5875    0.0000 C   0  0  0  0  0  0  0  0  0  0  0  0
    4.4500   -6.8375    0.0000 S   0  0  0  0  0  0  0  0  0  0  0  0
    2.9417   -5.3500    0.0000 C   0  0  0  0  0  0  0  0  0  0  0  0
    4.4417   -5.5000    0.0000 C   0  0  0  0  0  0  0  0  0  0  0  0
    2.9417   -7.0042    0.0000 N   0  0  0  0  0  0  0  0  0  0  0  0
    4.9292   -6.1667    0.0000 C   0  0  0  0  0  0  0  0  0  0  0  0
    2.2292   -5.7625    0.0000 N   0  0  0  0  0  0  0  0  0  0  0  0
    2.9375   -4.5292    0.0000 N   0  0  0  0  0  0  0  0  0  0  0  0
    2.2292   -6.5917    0.0000 C   0  0  0  0  0  0  0  0  0  0  0  0
    2.2542   -4.0667    0.0000 C   0  0  0  0  0  0  0  0  0  0  0  0
    2.3125   -3.2417    0.0000 C   0  0  0  0  0  0  0  0  0  0  0  0
    5.7542   -6.1625    0.0000 C   0  0  0  0  0  0  0  0  0  0  0  0
    1.7417   -2.6500    0.0000 C   0  0  0  0  0  0  0  0  0  0  0  0
    3.1042   -3.0500    0.0000 C   0  0  0  0  0  0  0  0  0  0  0  0
    6.1667   -5.4417    0.0000 C   0  0  0  0  0  0  0  0  0  0  0  0
    1.9792   -1.8542    0.0000 C   0  0  0  0  0  0  0  0  0  0  0  0
    3.3500   -2.2625    0.0000 C   0  0  0  0  0  0  0  0  0  0  0  0
    2.7792   -1.6625    0.0000 C   0  0  0  0  0  0  0  0  0  0  0  0
  2  1  1  0
  3  2  1  0
  4  1  2  0
  5  1  1  0
  6  2  2  0
  7  5  2  0
  8  4  1  0
  9  4  1  0
 10  8  2  0
 11  9  1  0
 12 11  1  0
 13  7  1  0
 14 12  2  0
 15 12  1  0
 16 13  1  0
 17 14  1  0
 18 15  2  0
 19 18  1  0
  3  7  1  0
  6 10  1  0
 19 17  2  0
M  END

> <chembl_id>
CHEMBL6430

> <chembl_pref_name>
None

$$$$

     RDKit          2D

 18 20  0  0  0  0  0  0  0  0999 V2000
    3.9917   -5.5625    0.0000 C   0  0  0  0  0  0  0  0  0  0  0  0
    3.9917   -6.3875    0.0000 C   0  0  0  0  0  0  0  0  0  0  0  0
    3.2750   -5.1500    0.0000 C   0  0  0  0  0  0  0  0  0  0  0  0
    4.7792   -6.6375    0.0000 S   0  0  0  0  0  0  0  0  0  0  0  0
    4.7750   -5.3000    0.0000 C   0  0  0  0  0  0  0  0  0  0  0  0
    3.2667   -4.3292    0.0000 S   0  0  0  0  0  0  0  0  0  0  0  0
    3.2750   -6.8042    0.0000 N   0  0  0  0  0  0  0  0  0  0  0  0
    2.5625   -5.5625    0.0000 N   0  0  0  0  0  0  0  0  0  0  0  0
    5.2667   -5.9667    0.0000 C   0  0  0  0  0  0  0  0  0  0  0  0
    2.7042   -3.7292    0.0000 C   0  0  0  0  0  0  0  0  0  0  0  0
    2.5625   -6.3917    0.0000 C   0  0  0  0  0  0  0  0  0  0  0  0
    1.9042   -3.9167    0.0000 N   0  0  0  0  0  0  0  0  0  0  0  0
    6.0917   -5.9625    0.0000 C   0  0  0  0  0  0  0  0  0  0  0  0
    1.3417   -3.3250    0.0000 C   0  0  0  0  0  0  0  0  0  0  0  0
    2.9417   -2.9417    0.0000 C   0  0  0  0  0  0  0  0  0  0  0  0
    6.5000   -5.2417    0.0000 C   0  0  0  0  0  0  0  0  0  0  0  0
    1.5792   -2.5292    0.0000 C   0  0  0  0  0  0  0  0  0  0  0  0
    2.3792   -2.3417    0.0000 C   0  0  0  0  0  0  0  0  0  0  0  0
  2  1  1  0
  3  1  2  0
  4  2  1  0
  5  1  1  0
  6  3  1  0
  7  2  2  0
  8  3  1  0
  9  5  2  0
 10  6  1  0
 11  8  2  0
 12 10  1  0
 13  9  1  0
 14 12  2  0
 15 10  2  0
 16 13  1  0
 17 18  2  0
 18 15  1  0
  4  9  1  0
  7 11  1  0
 14 17  1  0
M  END

> <chembl_id>
CHEMBL266799

> <chembl_pref_name>
None

$$$$

     RDKit          2D

 14 16  0  0  0  0  0  0  0  0999 V2000
   -0.6500   -0.1917    0.0000 N   0  0  0  0  0  0  0  0  0  0  0  0
   -0.1875    0.4708    0.0000 C   0  0  0  0  0  0  0  0  0  0  0  0
   -1.4458    0.0375    0.0000 C   0  0  0  0  0  0  0  0  0  0  0  0
   -0.6833    1.1333    0.0000 C   0  0  0  0  0  0  0  0  0  0  0  0
   -1.4583    0.8625    0.0000 C   0  0  0  0  0  0  0  0  0  0  0  0
   -2.1458   -0.3917    0.0000 C   0  0  0  0  0  0  0  0  0  0  0  0
    0.9667    1.3333    0.0000 N   0  0  0  0  0  0  0  0  0  0  0  0
   -2.1833    1.2583    0.0000 C   0  0  0  0  0  0  0  0  0  0  0  0
    0.6375    0.5708    0.0000 C   0  0  0  0  0  0  0  0  0  0  0  0
   -2.8750    0.0083    0.0000 C   0  0  0  0  0  0  0  0  0  0  0  0
   -2.8875    0.8250    0.0000 C   0  0  0  0  0  0  0  0  0  0  0  0
   -0.3583    1.8958    0.0000 C   0  0  0  0  0  0  0  0  0  0  0  0
   -3.5958   -0.4000    0.0000 Br  0  0  0  0  0  0  0  0  0  0  0  0
    0.4542    2.0000    0.0000 C   0  0  0  0  0  0  0  0  0  0  0  0
  2  1  1  0
  3  1  1  0
  4  2  2  0
  5  3  1  0
  6  3  2  0
  7  9  2  0
  8  5  2  0
  9  2  1  0
 10  6  1  0
 11 10  2  0
 12  4  1  0
 13 10  1  0
 14  7  1  0
  5  4  1  0
 11  8  1  0
 12 14  1  0
M  END

> <chembl_id>
CHEMBL428999

> <chembl_pref_name>
None

$$$$

     RDKit          2D

 14 16  0  0  0  0  0  0  0  0999 V2000
   -0.2208    0.8458    0.0000 C   0  0  0  0  0  0  0  0  0  0  0  0
   -0.6833    0.1833    0.0000 N   0  0  0  0  0  0  0  0  0  0  0  0
   -0.7125    1.5083    0.0000 C   0  0  0  0  0  0  0  0  0  0  0  0
   -1.4958    1.2375    0.0000 C   0  0  0  0  0  0  0  0  0  0  0  0
   -1.4833    0.4125    0.0000 C   0  0  0  0  0  0  0  0  0  0  0  0
    0.9375    1.7083    0.0000 N   0  0  0  0  0  0  0  0  0  0  0  0
   -2.2208    1.6333    0.0000 C   0  0  0  0  0  0  0  0  0  0  0  0
    0.6042    0.9458    0.0000 C   0  0  0  0  0  0  0  0  0  0  0  0
   -2.1833   -0.0167    0.0000 C   0  0  0  0  0  0  0  0  0  0  0  0
   -2.9208    1.2000    0.0000 C   0  0  0  0  0  0  0  0  0  0  0  0
   -0.3958    2.2708    0.0000 C   0  0  0  0  0  0  0  0  0  0  0  0
   -2.9083    0.3833    0.0000 C   0  0  0  0  0  0  0  0  0  0  0  0
   -3.6458    1.6000    0.0000 Br  0  0  0  0  0  0  0  0  0  0  0  0
    0.4250    2.3750    0.0000 C   0  0  0  0  0  0  0  0  0  0  0  0
  2  1  1  0
  3  1  2  0
  4  3  1  0
  5  2  1  0
  6  8  2  0
  7  4  2  0
  8  1  1  0
  9  5  2  0
 10  7  1  0
 11  3  1  0
 12  9  1  0
 13 10  1  0
 14  6  1  0
  5  4  1  0
 11 14  1  0
 12 10  2  0
M  END

> <chembl_id>
CHEMBL6626

> <chembl_pref_name>
None

$$$$

     RDKit          2D

 35 38  0  0  0  0  0  0  0  0999 V2000
    2.2542   -4.1292    0.0000 C   0  0  0  0  0  0  0  0  0  0  0  0
    1.5542   -3.7250    0.0000 C   0  0  0  0  0  0  0  0  0  0  0  0
    2.2542   -4.9542    0.0000 C   0  0  0  0  0  0  0  0  0  0  0  0
    0.8375   -4.1250    0.0000 N   0  0  0  0  0  0  0  0  0  0  0  0
    1.5500   -5.3625    0.0000 N   0  0  0  0  0  0  0  0  0  0  0  0
    7.2542   -2.8750    0.0000 C   0  0  0  0  0  0  0  0  0  0  0  0
    0.8375   -4.9500    0.0000 C   0  0  0  0  0  0  0  0  0  0  0  0
    2.9750   -3.7125    0.0000 C   0  0  0  0  0  0  0  0  0  0  0  0
    7.9667   -2.4625    0.0000 C   0  0  0  0  0  0  0  0  0  0  0  0
    6.5375   -2.4667    0.0000 C   0  0  0  0  0  0  0  0  0  0  0  0
    3.6875   -4.1250    0.0000 C   0  0  0  0  0  0  0  0  0  0  0  0
    5.8250   -2.8875    0.0000 C   0  0  0  0  0  0  0  0  0  0  0  0
    5.8292   -3.7042    0.0000 C   0  0  0  0  0  0  0  0  0  0  0  0
    5.1167   -4.1167    0.0000 N   0  0  0  0  0  0  0  0  0  0  0  0
    2.9750   -5.3667    0.0000 C   0  0  0  0  0  0  0  0  0  0  0  0
    4.4000   -3.7125    0.0000 C   0  0  0  0  0  0  0  0  0  0  0  0
    7.2542   -3.7000    0.0000 C   0  0  0  0  0  0  0  0  0  0  0  0
    3.6875   -4.9542    0.0000 C   0  0  0  0  0  0  0  0  0  0  0  0
    5.8125   -5.3875    0.0000 C   0  0  0  0  0  0  0  0  0  0  0  0
    8.6792   -2.8667    0.0000 N   0  0  0  0  0  0  0  0  0  0  0  0
    6.5167   -5.8292    0.0000 C   0  0  0  0  0  0  0  0  0  0  0  0
    1.5625   -2.9000    0.0000 O   0  0  0  0  0  0  0  0  0  0  0  0
    6.5417   -4.1167    0.0000 C   0  0  0  0  0  0  0  0  0  0  0  0
   10.1000   -1.2250    0.0000 N   0  0  0  0  0  0  0  0  0  0  0  0
    7.9625   -1.6375    0.0000 O   0  0  0  0  0  0  0  0  0  0  0  0
    6.5250   -1.6417    0.0000 F   0  0  0  0  0  0  0  0  0  0  0  0
    9.3917   -2.4542    0.0000 C   0  0  0  0  0  0  0  0  0  0  0  0
    9.3875   -1.6375    0.0000 C   0  0  0  0  0  0  0  0  0  0  0  0
    5.1167   -4.9417    0.0000 C   0  0  0  0  0  0  0  0  0  0  0  0
    0.1292   -5.3542    0.0000 C   0  0  0  0  0  0  0  0  0  0  0  0
    4.4042   -5.3667    0.0000 C   0  0  0  0  0  0  0  0  0  0  0  0
   10.0917   -0.4000    0.0000 C   0  0  0  0  0  0  0  0  0  0  0  0
    8.6750   -1.2375    0.0000 C   0  0  0  0  0  0  0  0  0  0  0  0
    9.3792    0.0000    0.0000 C   0  0  0  0  0  0  0  0  0  0  0  0
    8.6667   -0.4125    0.0000 C   0  0  0  0  0  0  0  0  0  0  0  0
  2  1  1  0
  3  1  2  0
  4  2  2  0
  5  3  1  0
  6 17  2  0
  7  5  2  0
  8  1  1  0
  9  6  1  0
 10 12  2  0
 11  8  2  0
 12 13  1  0
 13 14  1  0
 14 16  1  0
 15  3  1  0
 16 11  1  0
 17 23  1  0
 18 11  1  0
 19 29  1  0
 20  9  1  0
 21 19  3  0
 22  2  1  0
 23 13  2  0
 24 28  2  0
 25  9  2  0
 26 10  1  0
 27 20  1  0
 28 27  1  0
 29 14  1  0
 30  7  1  0
 31 18  1  0
 32 24  1  0
 33 28  1  0
 34 35  1  0
 35 33  2  0
 15 18  2  0
  4  7  1  0
 10  6  1  0
 32 34  2  0
M  END

> <chembl_id>
CHEMBL6632

> <chembl_pref_name>
None

$$$$

     RDKit          2D

 20 21  0  0  1  0  0  0  0  0999 V2000
    5.8292   -3.2542    0.0000 C   0  0  0  0  0  0  0  0  0  0  0  0
    5.1167   -3.6792    0.0000 C   0  0  0  0  0  0  0  0  0  0  0  0
    6.5417   -4.5042    0.0000 C   0  0  0  0  0  0  0  0  0  0  0  0
    6.5417   -3.6792    0.0000 C   0  0  0  0  0  0  0  0  0  0  0  0
    5.8292   -4.9167    0.0000 O   0  0  0  0  0  0  0  0  0  0  0  0
    5.1042   -4.5042    0.0000 C   0  0  0  0  0  0  0  0  0  0  0  0
    5.8292   -2.4292    0.0000 N   0  0  0  0  0  0  0  0  0  0  0  0
    6.4917   -1.9542    0.0000 C   0  0  0  0  0  0  0  0  0  0  0  0
    2.2542   -2.8542    0.0000 N   0  0  0  0  0  0  0  0  0  0  0  0
    2.9667   -3.2667    0.0000 C   0  0  0  0  0  0  0  0  0  0  0  0
    4.3917   -3.2667    0.0000 C   0  0  0  0  0  0  0  0  0  0  0  0
    7.2792   -2.2042    0.0000 O   0  0  0  0  0  0  0  0  0  0  0  0
    4.3917   -4.9167    0.0000 C   0  0  0  0  0  0  0  0  0  0  0  0
    3.6792   -3.6792    0.0000 C   0  0  0  0  0  0  0  0  0  0  0  0
    6.2417   -1.1667    0.0000 N   0  0  0  0  0  0  0  0  0  0  0  0
    7.2542   -3.2667    0.0000 O   0  0  0  0  0  0  0  0  0  0  0  0
    3.6792   -4.5042    0.0000 C   0  0  0  0  0  0  0  0  0  0  0  0
    7.2542   -4.9167    0.0000 C   0  0  0  0  0  0  0  0  0  0  0  0
    6.3292   -5.3042    0.0000 C   0  0  0  0  0  0  0  0  0  0  0  0
    5.4292   -0.9917    0.0000 C   0  0  0  0  0  0  0  0  0  0  0  0
  2  1  1  0
  3  4  1  0
  4  1  1  0
  5  3  1  0
  6  2  1  0
  7  1  1  0
  8  7  1  0
  9 10  3  0
 10 14  1  0
 11  2  2  0
 12  8  2  0
 13  6  2  0
 14 11  1  0
 15  8  1  0
  4 16  1  6
 17 14  2  0
 18  3  1  0
 19  3  1  0
 20 15  1  0
  5  6  1  0
 17 13  1  0
M  END

> <chembl_id>
CHEMBL267036

> <chembl_pref_name>
None

$$$$

     RDKit          2D

 22 23  0  0  1  0  0  0  0  0999 V2000
    5.3792   -3.2542    0.0000 C   0  0  0  0  0  0  0  0  0  0  0  0
    4.6667   -3.6792    0.0000 C   0  0  0  0  0  0  0  0  0  0  0  0
    6.0917   -4.5042    0.0000 C   0  0  0  0  0  0  0  0  0  0  0  0
    6.0917   -3.6792    0.0000 C   0  0  0  0  0  0  0  0  0  0  0  0
    5.3792   -4.9167    0.0000 O   0  0  0  0  0  0  0  0  0  0  0  0
    4.6667   -4.4917    0.0000 C   0  0  0  0  0  0  0  0  0  0  0  0
    6.8292   -2.2042    0.0000 N   0  0  0  0  0  0  0  0  0  0  0  0
    6.0417   -1.9542    0.0000 C   0  0  0  0  0  0  0  0  0  0  0  0
    7.6292   -2.4167    0.0000 C   0  0  0  0  0  0  0  0  0  0  0  0
    5.3792   -2.4292    0.0000 N   0  0  0  0  0  0  0  0  0  0  0  0
    8.4167   -2.6292    0.0000 N   0  0  0  0  0  0  0  0  0  0  0  0
    1.8042   -2.8542    0.0000 N   0  0  0  0  0  0  0  0  0  0  0  0
    2.5167   -3.2667    0.0000 C   0  0  0  0  0  0  0  0  0  0  0  0
    3.9542   -3.2667    0.0000 C   0  0  0  0  0  0  0  0  0  0  0  0
    3.9542   -4.9167    0.0000 C   0  0  0  0  0  0  0  0  0  0  0  0
    3.2417   -3.6792    0.0000 C   0  0  0  0  0  0  0  0  0  0  0  0
    5.7917   -1.1667    0.0000 N   0  0  0  0  0  0  0  0  0  0  0  0
    6.8167   -3.2667    0.0000 O   0  0  0  0  0  0  0  0  0  0  0  0
    3.2417   -4.5042    0.0000 C   0  0  0  0  0  0  0  0  0  0  0  0
    6.8042   -4.9167    0.0000 C   0  0  0  0  0  0  0  0  0  0  0  0
    5.8792   -5.3042    0.0000 C   0  0  0  0  0  0  0  0  0  0  0  0
    4.9792   -0.9917    0.0000 C   0  0  0  0  0  0  0  0  0  0  0  0
  2  1  1  0
  3  4  1  0
  4  1  1  0
  5  3  1  0
  6  2  1  0
  7  8  1  0
  8 10  1  0
  9  7  1  0
 10  1  1  0
 11  9  3  0
 12 13  3  0
 13 16  1  0
 14  2  2  0
 15  6  2  0
 16 14  1  0
 17  8  2  0
  4 18  1  6
 19 16  2  0
 20  3  1  0
 21  3  1  0
 22 17  1  0
  5  6  1  0
 19 15  1  0
M  END

> <chembl_id>
CHEMBL265621

> <chembl_pref_name>
None

$$$$

     RDKit          2D

 15 17  0  0  0  0  0  0  0  0999 V2000
    4.4044   -0.9145    0.0000 N   0  0  0  0  0  0  0  0  0  0  0  0
    2.1214    0.4825    0.0000 N   0  0  0  0  0  0  0  0  0  0  0  0
    4.7952    0.3619    0.0000 C   0  0  0  0  0  0  0  0  0  0  0  0
    3.9703    0.3478    0.0000 C   0  0  0  0  0  0  0  0  0  0  0  0
    5.0635   -0.4183    0.0000 C   0  0  0  0  0  0  0  0  0  0  0  0
    3.7288   -0.4410    0.0000 C   0  0  0  0  0  0  0  0  0  0  0  0
    5.3367    0.9843    0.0000 C   0  0  0  0  0  0  0  0  0  0  0  0
    5.8732   -0.5760    0.0000 C   0  0  0  0  0  0  0  0  0  0  0  0
    3.5041    1.0285    0.0000 C   0  0  0  0  0  0  0  0  0  0  0  0
    2.9614   -0.7441    0.0000 C   0  0  0  0  0  0  0  0  0  0  0  0
    4.4185   -1.7394    0.0000 C   0  0  0  0  0  0  0  0  0  0  0  0
    6.1464    0.8266    0.0000 C   0  0  0  0  0  0  0  0  0  0  0  0
    6.4147    0.0464    0.0000 C   0  0  0  0  0  0  0  0  0  0  0  0
    2.6813    1.0884    0.0000 C   0  0  0  0  0  0  0  0  0  0  0  0
    2.2461   -0.3331    0.0000 C   0  0  0  0  0  0  0  0  0  0  0  0
  1  5  1  0
  1  6  1  0
  1 11  1  0
  2 14  1  0
  2 15  1  0
  3  4  1  0
  3  5  2  0
  3  7  1  0
  4  6  2  0
  4  9  1  0
  5  8  1  0
  6 10  1  0
  7 12  2  0
  8 13  2  0
  9 14  1  0
 10 15  1  0
 12 13  1  0
M  END

> <chembl_id>
CHEMBL6557

> <chembl_pref_name>
PNU-22394

$$$$

     RDKit          2D

 49 51  0  0  1  0  0  0  0  0999 V2000
   -2.5083   -3.8667    0.0000 N   0  0  0  0  0  0  0  0  0  0  0  0
   -3.2208   -3.4542    0.0000 C   0  0  0  0  0  0  0  0  0  0  0  0
   -1.0958   -3.8292    0.0000 C   0  0  0  0  0  0  0  0  0  0  0  0
    1.0417   -0.2917    0.0000 C   0  0  0  0  0  0  0  0  0  0  0  0
    0.5167   -3.8542    0.0000 C   0  0  0  0  0  0  0  0  0  0  0  0
    0.3292   -1.4667    0.0000 N   0  0  0  0  0  0  0  0  0  0  0  0
   -0.3708   -1.8542    0.0000 C   0  0  0  0  0  0  0  0  0  0  0  0
   -1.7958   -4.2042    0.0000 C   0  0  0  0  0  0  0  0  0  0  0  0
    0.3417   -0.6792    0.0000 C   0  0  0  0  0  0  0  0  0  0  0  0
   -1.0708   -3.0292    0.0000 N   0  0  0  0  0  0  0  0  0  0  0  0
    1.0542    0.5083    0.0000 N   0  0  0  0  0  0  0  0  0  0  0  0
    0.3167   -5.0042    0.0000 N   0  0  0  0  0  0  0  0  0  0  0  0
   -0.0333   -4.3167    0.0000 C   0  0  0  0  0  0  0  0  0  0  0  0
   -0.3833   -2.6417    0.0000 C   0  0  0  0  0  0  0  0  0  0  0  0
    1.7542    0.8958    0.0000 C   0  0  0  0  0  0  0  0  0  0  0  0
    1.1917   -4.2417    0.0000 C   0  0  0  0  0  0  0  0  0  0  0  0
    1.7667    1.6833    0.0000 C   0  0  0  0  0  0  0  0  0  0  0  0
    0.3042   -3.0542    0.0000 C   0  0  0  0  0  0  0  0  0  0  0  0
    1.0667   -4.9667    0.0000 C   0  0  0  0  0  0  0  0  0  0  0  0
   -0.3333   -0.2667    0.0000 C   0  0  0  0  0  0  0  0  0  0  0  0
   -3.2208   -2.6292    0.0000 O   0  0  0  0  0  0  0  0  0  0  0  0
   -0.4083   -4.2417    0.0000 O   0  0  0  0  0  0  0  0  0  0  0  0
    1.7167   -0.7042    0.0000 O   0  0  0  0  0  0  0  0  0  0  0  0
   -1.0458   -1.4417    0.0000 O   0  0  0  0  0  0  0  0  0  0  0  0
    1.0917    2.0958    0.0000 O   0  0  0  0  0  0  0  0  0  0  0  0
    2.4417    0.4833    0.0000 C   0  0  0  0  0  0  0  0  0  0  0  0
   -3.9458   -3.8667    0.0000 C   0  0  0  0  0  0  0  0  0  0  0  0
   -3.0583   -4.4542    0.0000 C   0  0  0  0  0  0  0  0  0  0  0  0
    2.4667    2.0708    0.0000 O   0  0  0  0  0  0  0  0  0  0  0  0
   -5.3708   -6.3417    0.0000 N   0  0  0  0  0  0  0  0  0  0  0  0
   -6.8042   -3.8667    0.0000 N   0  0  0  0  0  0  0  0  0  0  0  0
   -1.8833   -4.9917    0.0000 C   0  0  0  0  0  0  0  0  0  0  0  0
   -2.6708   -5.1417    0.0000 C   0  0  0  0  0  0  0  0  0  0  0  0
    1.9167   -4.0542    0.0000 C   0  0  0  0  0  0  0  0  0  0  0  0
    3.1292    0.8708    0.0000 C   0  0  0  0  0  0  0  0  0  0  0  0
   -1.3083   -0.7542    0.0000 C   0  0  0  0  0  0  0  0  0  0  0  0
   -1.3708    0.6458    0.0000 C   0  0  0  0  0  0  0  0  0  0  0  0
   -0.2208    0.7583    0.0000 C   0  0  0  0  0  0  0  0  0  0  0  0
    1.6667   -5.4792    0.0000 C   0  0  0  0  0  0  0  0  0  0  0  0
   -6.0917   -3.4542    0.0000 C   0  0  0  0  0  0  0  0  0  0  0  0
   -4.6583   -5.9417    0.0000 C   0  0  0  0  0  0  0  0  0  0  0  0
   -4.6583   -3.4542    0.0000 C   0  0  0  0  0  0  0  0  0  0  0  0
   -3.9458   -4.7042    0.0000 C   0  0  0  0  0  0  0  0  0  0  0  0
   -4.6583   -5.1167    0.0000 C   0  0  0  0  0  0  0  0  0  0  0  0
   -5.3833   -3.8667    0.0000 C   0  0  0  0  0  0  0  0  0  0  0  0
    3.1667    1.6458    0.0000 C   0  0  0  0  0  0  0  0  0  0  0  0
    3.8167    0.4583    0.0000 C   0  0  0  0  0  0  0  0  0  0  0  0
    2.5167   -4.5792    0.0000 C   0  0  0  0  0  0  0  0  0  0  0  0
    2.3917   -5.2917    0.0000 C   0  0  0  0  0  0  0  0  0  0  0  0
  2  1  1  0
  8  3  1  1
  4  9  1  0
  5 18  1  0
  6  7  1  0
  7 14  1  0
  8  1  1  0
  9  6  1  0
 10  3  1  0
 11  4  1  0
 12 13  1  0
 13  5  2  0
 14 10  1  0
 15 11  1  0
 16  5  1  0
 17 15  1  0
 14 18  1  6
 19 16  2  0
  9 20  1  1
 21  2  2  0
 22  3  2  0
 23  4  2  0
 24  7  2  0
 25 17  2  0
 15 26  1  6
 27  2  1  0
 28  1  1  0
 29 17  1  0
 30 41  1  0
 31 40  1  0
 32  8  1  0
 33 28  1  0
 34 16  1  0
 35 26  1  0
 36 20  1  0
 37 20  1  0
 38 20  1  0
 39 19  1  0
 40 45  1  0
 41 44  1  0
 42 27  1  0
 43 27  1  0
 44 43  1  0
 45 42  1  0
 46 35  1  0
 47 35  1  0
 48 34  2  0
 49 48  1  0
 33 32  1  0
 19 12  1  0
 39 49  2  0
M  END

> <chembl_id>
CHEMBL427956

> <chembl_pref_name>
None

$$$$

     RDKit          2D

 13 15  0  0  0  0  0  0  0  0999 V2000
   -1.4750    0.5500    0.0000 N   0  0  0  0  0  0  0  0  0  0  0  0
   -1.0125    1.2208    0.0000 C   0  0  0  0  0  0  0  0  0  0  0  0
   -1.5083    1.8833    0.0000 C   0  0  0  0  0  0  0  0  0  0  0  0
   -2.2833    1.6083    0.0000 C   0  0  0  0  0  0  0  0  0  0  0  0
   -2.2708    0.7833    0.0000 C   0  0  0  0  0  0  0  0  0  0  0  0
    0.1417    2.0833    0.0000 N   0  0  0  0  0  0  0  0  0  0  0  0
   -0.1875    1.3208    0.0000 C   0  0  0  0  0  0  0  0  0  0  0  0
   -1.1833    2.6458    0.0000 C   0  0  0  0  0  0  0  0  0  0  0  0
   -3.0083    2.0000    0.0000 C   0  0  0  0  0  0  0  0  0  0  0  0
   -2.9708    0.3583    0.0000 C   0  0  0  0  0  0  0  0  0  0  0  0
   -0.3708    2.7458    0.0000 C   0  0  0  0  0  0  0  0  0  0  0  0
   -3.7125    1.5708    0.0000 C   0  0  0  0  0  0  0  0  0  0  0  0
   -3.7000    0.7583    0.0000 C   0  0  0  0  0  0  0  0  0  0  0  0
  2  1  1  0
  3  2  2  0
  4  5  1  0
  5  1  1  0
  6  7  1  0
  7  2  1  0
  8  3  1  0
  9  4  2  0
 10  5  2  0
 11  6  1  0
 12 13  2  0
 13 10  1  0
  4  3  1  0
 12  9  1  0
  8 11  1  0
M  END

> <chembl_id>
CHEMBL269236

> <chembl_pref_name>
TRYPTOLINE

$$$$

     RDKit          2D

 17 18  0  0  0  0  0  0  0  0999 V2000
    5.1667   -3.8917    0.0000 N   0  0  0  0  0  0  0  0  0  0  0  0
    5.0167   -6.0167    0.0000 C   0  0  0  0  0  0  0  0  0  0  0  0
    4.4542   -3.4792    0.0000 C   0  0  0  0  0  0  0  0  0  0  0  0
    4.4542   -2.6542    0.0000 N   0  0  0  0  0  0  0  0  0  0  0  0
    5.8792   -3.4792    0.0000 C   0  0  0  0  0  0  0  0  0  0  0  0
    4.6125   -6.8375    0.0000 C   0  0  0  0  0  0  0  0  0  0  0  0
    5.8792   -2.6542    0.0000 C   0  0  0  0  0  0  0  0  0  0  0  0
    5.1667   -2.2417    0.0000 C   0  0  0  0  0  0  0  0  0  0  0  0
    3.9542   -5.5000    0.0000 O   0  0  0  0  0  0  0  0  0  0  0  0
    3.2917   -6.8375    0.0000 C   0  0  0  0  0  0  0  0  0  0  0  0
    2.8917   -6.0167    0.0000 C   0  0  0  0  0  0  0  0  0  0  0  0
    3.7375   -3.8917    0.0000 O   0  0  0  0  0  0  0  0  0  0  0  0
    5.1625   -1.4167    0.0000 O   0  0  0  0  0  0  0  0  0  0  0  0
    6.5917   -2.2375    0.0000 F   0  0  0  0  0  0  0  0  0  0  0  0
    5.0417   -7.5375    0.0000 O   0  0  0  0  0  0  0  0  0  0  0  0
    2.8542   -7.5375    0.0000 O   0  0  0  0  0  0  0  0  0  0  0  0
    2.1125   -5.7417    0.0000 C   0  0  0  0  0  0  0  0  0  0  0  0
  2  1  1  0
  3  1  1  0
  4  3  1  0
  5  1  1  0
  6  2  1  0
  7  5  2  0
  8  7  1  0
  9  2  1  0
 10  6  1  0
 11  9  1  0
 12  3  2  0
 13  8  2  0
 14  7  1  0
 15  6  1  0
 16 10  1  0
 17 11  1  0
  4  8  1  0
 10 11  1  0
M  END

> <chembl_id>
CHEMBL6567

> <chembl_pref_name>
None

$$$$

     RDKit          2D

 20 23  0  0  1  0  0  0  0  0999 V2000
    8.0167   -4.0167    0.0000 C   0  0  0  0  0  0  0  0  0  0  0  0
    8.0125   -4.8375    0.0000 C   0  0  0  0  0  0  0  0  0  0  0  0
    7.2917   -5.2500    0.0000 C   0  0  0  0  0  0  0  0  0  0  0  0
    6.5792   -4.8292    0.0000 C   0  0  0  0  0  0  0  0  0  0  0  0
    5.8667   -5.2417    0.0000 C   0  0  0  0  0  0  0  0  0  0  0  0
    5.8625   -6.0667    0.0000 C   0  0  0  0  0  0  0  0  0  0  0  0
    7.3042   -3.5917    0.0000 C   0  0  0  0  0  0  0  0  0  0  0  0
    6.5792   -4.0042    0.0000 C   0  0  0  0  0  0  0  0  0  0  0  0
    7.2917   -6.0750    0.0000 C   0  0  0  0  0  0  0  0  0  0  0  0
    8.7917   -5.1000    0.0000 C   0  0  0  0  0  0  0  0  0  0  0  0
    5.1500   -4.8292    0.0000 C   0  0  0  0  0  0  0  0  0  0  0  0
    8.8042   -3.7667    0.0000 C   0  0  0  0  0  0  0  0  0  0  0  0
    6.5792   -6.4875    0.0000 C   0  0  0  0  0  0  0  0  0  0  0  0
    5.1500   -6.4875    0.0000 C   0  0  0  0  0  0  0  0  0  0  0  0
    9.2792   -4.4375    0.0000 C   0  0  0  0  0  0  0  0  0  0  0  0
    4.4375   -6.0750    0.0000 C   0  0  0  0  0  0  0  0  0  0  0  0
    4.4375   -5.2500    0.0000 C   0  0  0  0  0  0  0  0  0  0  0  0
    8.0125   -3.1917    0.0000 C   0  0  0  0  0  0  0  0  0  0  0  0
    9.0625   -2.9792    0.0000 O   0  0  0  0  0  0  0  0  0  0  0  0
    3.7250   -6.4792    0.0000 O   0  0  0  0  0  0  0  0  0  0  0  0
  2  1  1  0
  3  2  1  0
  4  8  1  0
  5  4  1  0
  6  5  1  0
  7  1  1  0
  8  7  1  0
  9  3  1  0
 10  2  1  0
 11  5  2  0
 12  1  1  0
 13  9  1  0
 14  6  2  0
 15 12  1  0
 16 17  2  0
 17 11  1  0
  1 18  1  1
 12 19  1  1
 20 16  1  0
 10 15  1  0
  3  4  1  0
  6 13  1  0
 16 14  1  0
M  END

> <chembl_id>
CHEMBL6386

> <chembl_pref_name>
None

$$$$

     RDKit          2D

 32 35  0  0  0  0  0  0  0  0999 V2000
    0.5042   -2.3250    0.0000 C   0  0  0  0  0  0  0  0  0  0  0  0
    1.2042   -2.7375    0.0000 C   0  0  0  0  0  0  0  0  0  0  0  0
   -0.2000   -2.7292    0.0000 N   0  0  0  0  0  0  0  0  0  0  0  0
    0.4917   -3.9667    0.0000 N   0  0  0  0  0  0  0  0  0  0  0  0
    1.2042   -3.5542    0.0000 C   0  0  0  0  0  0  0  0  0  0  0  0
   -0.2083   -3.5500    0.0000 C   0  0  0  0  0  0  0  0  0  0  0  0
    9.0167    0.2625    0.0000 N   0  0  0  0  0  0  0  0  0  0  0  0
    6.9167   -1.0625    0.0000 C   0  0  0  0  0  0  0  0  0  0  0  0
    8.3417   -0.2292    0.0000 C   0  0  0  0  0  0  0  0  0  0  0  0
    4.0667   -2.7167    0.0000 N   0  0  0  0  0  0  0  0  0  0  0  0
    4.7667   -3.9875    0.0000 C   0  0  0  0  0  0  0  0  0  0  0  0
    7.6667    0.2458    0.0000 S   0  0  0  0  0  0  0  0  0  0  0  0
    7.6292   -1.4667    0.0000 N   0  0  0  0  0  0  0  0  0  0  0  0
    5.4667   -4.4292    0.0000 C   0  0  0  0  0  0  0  0  0  0  0  0
    1.9167   -2.3167    0.0000 C   0  0  0  0  0  0  0  0  0  0  0  0
    6.2042   -1.4792    0.0000 C   0  0  0  0  0  0  0  0  0  0  0  0
    4.7792   -2.3042    0.0000 C   0  0  0  0  0  0  0  0  0  0  0  0
    0.5167   -1.5000    0.0000 O   0  0  0  0  0  0  0  0  0  0  0  0
    3.3542   -2.3125    0.0000 C   0  0  0  0  0  0  0  0  0  0  0  0
    8.7542    1.0333    0.0000 C   0  0  0  0  0  0  0  0  0  0  0  0
    2.6417   -2.7292    0.0000 C   0  0  0  0  0  0  0  0  0  0  0  0
    7.9292    1.0333    0.0000 C   0  0  0  0  0  0  0  0  0  0  0  0
    6.9167   -0.2375    0.0000 O   0  0  0  0  0  0  0  0  0  0  0  0
    1.9167   -3.9667    0.0000 C   0  0  0  0  0  0  0  0  0  0  0  0
    6.2042   -2.3042    0.0000 C   0  0  0  0  0  0  0  0  0  0  0  0
    5.4792   -1.0667    0.0000 C   0  0  0  0  0  0  0  0  0  0  0  0
    5.4917   -2.7167    0.0000 C   0  0  0  0  0  0  0  0  0  0  0  0
    4.7667   -1.4875    0.0000 C   0  0  0  0  0  0  0  0  0  0  0  0
    8.3417   -1.0542    0.0000 C   0  0  0  0  0  0  0  0  0  0  0  0
    4.0667   -3.5417    0.0000 C   0  0  0  0  0  0  0  0  0  0  0  0
    2.6417   -3.5542    0.0000 C   0  0  0  0  0  0  0  0  0  0  0  0
   -0.9250   -3.9542    0.0000 C   0  0  0  0  0  0  0  0  0  0  0  0
  2  1  1  0
  3  1  2  0
  4  6  2  0
  5  2  2  0
  6  3  1  0
  7  9  2  0
  8 16  1  0
  9 29  1  0
 10 19  1  0
 11 30  1  0
 12  9  1  0
 13  8  1  0
 14 11  3  0
 15  2  1  0
 16 26  1  0
 17 10  1  0
 18  1  1  0
 19 21  1  0
 20  7  1  0
 21 15  2  0
 22 12  1  0
 23  8  2  0
 24  5  1  0
 25 27  1  0
 26 28  2  0
 27 17  2  0
 28 17  1  0
 29 13  1  0
 30 10  1  0
 31 21  1  0
 32  6  1  0
  5  4  1  0
 24 31  2  0
 25 16  2  0
 20 22  2  0
M  END

> <chembl_id>
CHEMBL267702

> <chembl_pref_name>
None

$$$$

     RDKit          2D

 21 22  0  0  0  0  0  0  0  0999 V2000
    2.1625   -3.1792    0.0000 C   0  0  0  0  0  0  0  0  0  0  0  0
    1.4500   -3.6000    0.0000 C   0  0  0  0  0  0  0  0  0  0  0  0
    2.8792   -3.6000    0.0000 C   0  0  0  0  0  0  0  0  0  0  0  0
    3.6125   -2.1292    0.0000 N   0  0  0  0  0  0  0  0  0  0  0  0
    1.4417   -4.4250    0.0000 C   0  0  0  0  0  0  0  0  0  0  0  0
    2.8292   -1.8750    0.0000 C   0  0  0  0  0  0  0  0  0  0  0  0
    2.1625   -4.8417    0.0000 O   0  0  0  0  0  0  0  0  0  0  0  0
    4.4042   -2.3417    0.0000 C   0  0  0  0  0  0  0  0  0  0  0  0
    2.1625   -2.3542    0.0000 N   0  0  0  0  0  0  0  0  0  0  0  0
    2.8792   -4.4292    0.0000 C   0  0  0  0  0  0  0  0  0  0  0  0
    5.2000   -2.5542    0.0000 N   0  0  0  0  0  0  0  0  0  0  0  0
   -1.4125   -2.7750    0.0000 N   0  0  0  0  0  0  0  0  0  0  0  0
   -0.6958   -3.1875    0.0000 C   0  0  0  0  0  0  0  0  0  0  0  0
    0.7292   -3.1875    0.0000 C   0  0  0  0  0  0  0  0  0  0  0  0
    0.7292   -4.8417    0.0000 C   0  0  0  0  0  0  0  0  0  0  0  0
    0.0167   -3.6000    0.0000 C   0  0  0  0  0  0  0  0  0  0  0  0
    2.5750   -1.0917    0.0000 N   0  0  0  0  0  0  0  0  0  0  0  0
    0.0167   -4.4292    0.0000 C   0  0  0  0  0  0  0  0  0  0  0  0
    3.5917   -4.8417    0.0000 C   0  0  0  0  0  0  0  0  0  0  0  0
    2.6625   -5.2250    0.0000 C   0  0  0  0  0  0  0  0  0  0  0  0
    1.7667   -0.9167    0.0000 C   0  0  0  0  0  0  0  0  0  0  0  0
  2  1  1  0
  3  1  2  0
  4  6  1  0
  5  2  2  0
  6  9  2  0
  7 10  1  0
  8  4  1  0
  9  1  1  0
 10  3  1  0
 11  8  3  0
 12 13  3  0
 13 16  1  0
 14  2  1  0
 15  5  1  0
 16 14  2  0
 17  6  1  0
 18 16  1  0
 19 10  1  0
 20 10  1  0
 21 17  1  0
  7  5  1  0
 18 15  2  0
M  END

> <chembl_id>
CHEMBL6384

> <chembl_pref_name>
None

$$$$

     RDKit          2D

 12 12  0  0  0  0  0  0  0  0999 V2000
    0.8157   -0.7646    0.0000 C   0  0  0  0  0  0  0  0  0  0  0  0
    1.5272   -1.1791    0.0000 C   0  0  0  0  0  0  0  0  0  0  0  0
    2.2428   -0.7646    0.0000 C   0  0  0  0  0  0  0  0  0  0  0  0
    0.1003   -1.1791    0.0000 C   0  0  0  0  0  0  0  0  0  0  0  0
    0.1003   -2.0041    0.0000 C   0  0  0  0  0  0  0  0  0  0  0  0
   -0.6153   -2.4145    0.0000 C   0  0  0  0  0  0  0  0  0  0  0  0
   -1.3309   -2.0041    0.0000 C   0  0  0  0  0  0  0  0  0  0  0  0
   -1.3309   -1.1791    0.0000 C   0  0  0  0  0  0  0  0  0  0  0  0
   -0.6153   -0.7646    0.0000 C   0  0  0  0  0  0  0  0  0  0  0  0
   -2.0424   -2.4145    0.0000 S   0  0  0  0  0  0  0  0  0  0  0  0
   -2.7579   -2.0041    0.0000 C   0  0  0  0  0  0  0  0  0  0  0  0
    1.5272   -2.0041    0.0000 N   0  0  0  0  0  0  0  0  0  0  0  0
  1  2  1  0
  2  3  1  0
  4  5  1  0
  5  6  2  0
  6  7  1  0
  7  8  2  0
  8  9  1  0
  4  9  2  0
 10 11  1  0
  7 10  1  0
  1  4  1  0
  2 12  1  0
M  END

> <chembl_id>
CHEMBL6467

> <chembl_pref_name>
4-METHYLTHIOAMPHETAMINE

$$$$

     RDKit          2D

 37 39  0  0  1  0  0  0  0  0999 V2000
    1.5542   -4.1667    0.0000 C   0  0  0  0  0  0  0  0  0  0  0  0
    0.8417   -3.7542    0.0000 C   0  0  0  0  0  0  0  0  0  0  0  0
    1.5542   -4.9792    0.0000 C   0  0  0  0  0  0  0  0  0  0  0  0
    0.1375   -4.1542    0.0000 N   0  0  0  0  0  0  0  0  0  0  0  0
    0.8417   -5.3917    0.0000 N   0  0  0  0  0  0  0  0  0  0  0  0
    6.5417   -2.9042    0.0000 C   0  0  0  0  0  0  0  0  0  0  0  0
    7.2542   -2.4917    0.0000 C   0  0  0  0  0  0  0  0  0  0  0  0
    0.1375   -4.9792    0.0000 C   0  0  0  0  0  0  0  0  0  0  0  0
    2.2542   -3.7417    0.0000 C   0  0  0  0  0  0  0  0  0  0  0  0
    5.8292   -2.4917    0.0000 C   0  0  0  0  0  0  0  0  0  0  0  0
    7.9667   -2.8917    0.0000 N   0  0  0  0  0  0  0  0  0  0  0  0
    2.9792   -4.1542    0.0000 C   0  0  0  0  0  0  0  0  0  0  0  0
    5.1167   -2.9167    0.0000 C   0  0  0  0  0  0  0  0  0  0  0  0
    5.1167   -3.7292    0.0000 C   0  0  0  0  0  0  0  0  0  0  0  0
    4.4042   -4.1417    0.0000 N   0  0  0  0  0  0  0  0  0  0  0  0
    2.2542   -5.3917    0.0000 C   0  0  0  0  0  0  0  0  0  0  0  0
    9.4042   -2.8917    0.0000 C   0  0  0  0  0  0  0  0  0  0  0  0
    3.6917   -3.7417    0.0000 C   0  0  0  0  0  0  0  0  0  0  0  0
    6.5417   -3.7292    0.0000 C   0  0  0  0  0  0  0  0  0  0  0  0
    2.9792   -4.9792    0.0000 C   0  0  0  0  0  0  0  0  0  0  0  0
    5.1042   -5.4167    0.0000 C   0  0  0  0  0  0  0  0  0  0  0  0
    8.6792   -2.4792    0.0000 C   0  0  0  0  0  0  0  0  0  0  0  0
    5.8042   -5.8542    0.0000 C   0  0  0  0  0  0  0  0  0  0  0  0
    9.3792   -0.4167    0.0000 C   0  0  0  0  0  0  0  0  0  0  0  0
    0.8542   -2.9292    0.0000 O   0  0  0  0  0  0  0  0  0  0  0  0
    7.2542   -1.6542    0.0000 O   0  0  0  0  0  0  0  0  0  0  0  0
    5.8292   -4.1417    0.0000 C   0  0  0  0  0  0  0  0  0  0  0  0
   10.1167   -2.4667    0.0000 O   0  0  0  0  0  0  0  0  0  0  0  0
    8.6667   -0.0167    0.0000 O   0  0  0  0  0  0  0  0  0  0  0  0
    8.6792   -1.6542    0.0000 C   0  0  0  0  0  0  0  0  0  0  0  0
    5.8167   -1.6667    0.0000 F   0  0  0  0  0  0  0  0  0  0  0  0
    9.3917   -1.2417    0.0000 C   0  0  0  0  0  0  0  0  0  0  0  0
    4.4042   -4.9667    0.0000 C   0  0  0  0  0  0  0  0  0  0  0  0
    9.4042   -3.7167    0.0000 O   0  0  0  0  0  0  0  0  0  0  0  0
   10.0917   -0.0042    0.0000 O   0  0  0  0  0  0  0  0  0  0  0  0
   -0.5750   -5.3792    0.0000 C   0  0  0  0  0  0  0  0  0  0  0  0
    3.6917   -5.3917    0.0000 C   0  0  0  0  0  0  0  0  0  0  0  0
  2  1  1  0
  3  1  2  0
  4  2  2  0
  5  3  1  0
  6 19  2  0
  7  6  1  0
  8  5  2  0
  9  1  1  0
 10 13  2  0
 11  7  1  0
 12  9  2  0
 13 14  1  0
 14 15  1  0
 15 18  1  0
 16  3  1  0
 17 22  1  0
 18 12  1  0
 19 27  1  0
 20 12  1  0
 21 33  1  0
 22 11  1  0
 23 21  3  0
 24 32  1  0
 25  2  1  0
 26  7  2  0
 27 14  2  0
 28 17  2  0
 29 24  2  0
 22 30  1  6
 31 10  1  0
 32 30  1  0
 33 15  1  0
 34 17  1  0
 35 24  1  0
 36  8  1  0
 37 20  1  0
 20 16  2  0
  8  4  1  0
 10  6  1  0
M  END

> <chembl_id>
CHEMBL414012

> <chembl_pref_name>
None

$$$$

     RDKit          2D

 13 15  0  0  0  0  0  0  0  0999 V2000
    4.1479   -1.0136    0.0000 N   0  0  0  0  0  0  0  0  0  0  0  0
    5.9194    0.6976    0.0000 N   0  0  0  0  0  0  0  0  0  0  0  0
    4.5604    0.2560    0.0000 C   0  0  0  0  0  0  0  0  0  0  0  0
    3.7354    0.2560    0.0000 C   0  0  0  0  0  0  0  0  0  0  0  0
    4.8153   -0.5286    0.0000 C   0  0  0  0  0  0  0  0  0  0  0  0
    3.4804   -0.5286    0.0000 C   0  0  0  0  0  0  0  0  0  0  0  0
    5.1124    0.8691    0.0000 C   0  0  0  0  0  0  0  0  0  0  0  0
    3.1833    0.8691    0.0000 C   0  0  0  0  0  0  0  0  0  0  0  0
    5.6223   -0.7002    0.0000 C   0  0  0  0  0  0  0  0  0  0  0  0
    2.6735   -0.7002    0.0000 C   0  0  0  0  0  0  0  0  0  0  0  0
    6.1743   -0.0871    0.0000 C   0  0  0  0  0  0  0  0  0  0  0  0
    2.3764    0.6976    0.0000 C   0  0  0  0  0  0  0  0  0  0  0  0
    2.1214   -0.0871    0.0000 C   0  0  0  0  0  0  0  0  0  0  0  0
  1  5  1  0
  1  6  1  0
  2  7  1  0
  2 11  1  0
  3  4  1  0
  3  5  2  0
  3  7  1  0
  4  6  1  0
  4  8  2  0
  5  9  1  0
  6 10  2  0
  8 12  1  0
  9 11  1  0
 10 13  1  0
 12 13  2  0
M  END

> <chembl_id>
CHEMBL269074

> <chembl_pref_name>
None

$$$$

     RDKit          2D

 24 26  0  0  0  0  0  0  0  0999 V2000
    4.4042   -4.0917    0.0000 S   0  0  0  0  0  0  0  0  0  0  0  0
    5.1167   -4.5042    0.0000 N   0  0  0  0  0  0  0  0  0  0  0  0
    4.4042   -3.2667    0.0000 C   0  0  0  0  0  0  0  0  0  0  0  0
    3.6792   -2.8542    0.0000 C   0  0  0  0  0  0  0  0  0  0  0  0
    3.6792   -2.0250    0.0000 C   0  0  0  0  0  0  0  0  0  0  0  0
    5.8375   -4.0792    0.0000 C   0  0  0  0  0  0  0  0  0  0  0  0
    2.9667   -1.6042    0.0000 C   0  0  0  0  0  0  0  0  0  0  0  0
    5.8250   -3.2542    0.0000 N   0  0  0  0  0  0  0  0  0  0  0  0
    6.5417   -2.8375    0.0000 N   0  0  0  0  0  0  0  0  0  0  0  0
    3.5750   -4.0792    0.0000 O   0  0  0  0  0  0  0  0  0  0  0  0
    4.4000   -4.9250    0.0000 O   0  0  0  0  0  0  0  0  0  0  0  0
    2.9667   -0.7792    0.0000 N   0  0  0  0  0  0  0  0  0  0  0  0
    7.2625   -3.2417    0.0000 C   0  0  0  0  0  0  0  0  0  0  0  0
    6.5542   -4.5000    0.0000 C   0  0  0  0  0  0  0  0  0  0  0  0
    7.2625   -4.0792    0.0000 C   0  0  0  0  0  0  0  0  0  0  0  0
    5.1167   -2.8500    0.0000 C   0  0  0  0  0  0  0  0  0  0  0  0
    4.4000   -1.6042    0.0000 C   0  0  0  0  0  0  0  0  0  0  0  0
    2.9667   -3.2667    0.0000 C   0  0  0  0  0  0  0  0  0  0  0  0
    2.2542   -2.0250    0.0000 C   0  0  0  0  0  0  0  0  0  0  0  0
    2.2542   -2.8542    0.0000 C   0  0  0  0  0  0  0  0  0  0  0  0
    5.1167   -2.0167    0.0000 C   0  0  0  0  0  0  0  0  0  0  0  0
    3.6792   -0.3542    0.0000 C   0  0  0  0  0  0  0  0  0  0  0  0
    2.2417   -0.3625    0.0000 C   0  0  0  0  0  0  0  0  0  0  0  0
    7.9792   -2.8292    0.0000 C   0  0  0  0  0  0  0  0  0  0  0  0
  2  1  1  0
  3  1  1  0
  4  3  1  0
  5  4  2  0
  6  2  1  0
  7  5  1  0
  8  6  2  0
  9  8  1  0
 10  1  2  0
 11  1  2  0
 12  7  1  0
 13 15  1  0
 14  6  1  0
 15 14  2  0
 16  3  2  0
 17 21  2  0
 18  4  1  0
 19 20  1  0
 20 18  2  0
 21 16  1  0
 22 12  1  0
 23 12  1  0
 24 13  1  0
 17  5  1  0
 19  7  2  0
 13  9  2  0
M  END

> <chembl_id>
CHEMBL268387

> <chembl_pref_name>
None

$$$$

     RDKit          2D

 21 24  0  0  0  0  0  0  0  0999 V2000
    2.7542   -4.2542    0.0000 N   0  0  0  0  0  0  0  0  0  0  0  0
    3.4792   -3.0167    0.0000 C   0  0  0  0  0  0  0  0  0  0  0  0
    3.4792   -3.8417    0.0000 C   0  0  0  0  0  0  0  0  0  0  0  0
    2.0417   -3.0125    0.0000 C   0  0  0  0  0  0  0  0  0  0  0  0
    2.0417   -3.8375    0.0000 C   0  0  0  0  0  0  0  0  0  0  0  0
    2.7500   -5.0792    0.0000 C   0  0  0  0  0  0  0  0  0  0  0  0
    3.2292   -2.2292    0.0000 S   0  0  0  0  0  0  0  0  0  0  0  0
    4.3042   -3.0167    0.0000 S   0  0  0  0  0  0  0  0  0  0  0  0
    2.0292   -5.4875    0.0000 N   0  0  0  0  0  0  0  0  0  0  0  0
    4.1917   -4.2542    0.0000 O   0  0  0  0  0  0  0  0  0  0  0  0
    1.3292   -2.6000    0.0000 C   0  0  0  0  0  0  0  0  0  0  0  0
    1.3292   -4.2542    0.0000 C   0  0  0  0  0  0  0  0  0  0  0  0
    1.3250   -5.0667    0.0000 C   0  0  0  0  0  0  0  0  0  0  0  0
    2.0292   -6.3125    0.0000 C   0  0  0  0  0  0  0  0  0  0  0  0
    4.5667   -2.2292    0.0000 C   0  0  0  0  0  0  0  0  0  0  0  0
    3.8917   -1.7500    0.0000 C   0  0  0  0  0  0  0  0  0  0  0  0
    0.6167   -3.0167    0.0000 C   0  0  0  0  0  0  0  0  0  0  0  0
    0.6167   -3.8417    0.0000 C   0  0  0  0  0  0  0  0  0  0  0  0
    1.3042   -6.7167    0.0000 C   0  0  0  0  0  0  0  0  0  0  0  0
    0.6042   -5.4667    0.0000 C   0  0  0  0  0  0  0  0  0  0  0  0
    0.5917   -6.2917    0.0000 C   0  0  0  0  0  0  0  0  0  0  0  0
  2  3  1  0
  3  1  1  0
  4  5  1  0
  5  1  1  0
  6  1  1  0
  7  2  1  0
  8  2  1  0
  9  6  1  0
 10  3  2  0
 11  4  2  0
 12  5  2  0
 13  9  1  0
 14  9  1  0
 15  8  1  0
 16  7  1  0
 17 18  2  0
 18 12  1  0
 19 14  1  0
 20 13  1  0
 21 19  1  0
  2  4  1  0
 17 11  1  0
 16 15  1  0
 21 20  1  0
M  END

> <chembl_id>
CHEMBL6389

> <chembl_pref_name>
None

$$$$

     RDKit          2D

 15 17  0  0  0  0  0  0  0  0999 V2000
    4.8917   -2.0292    0.0000 C   0  0  0  0  0  0  0  0  0  0  0  0
    4.8917   -2.8542    0.0000 C   0  0  0  0  0  0  0  0  0  0  0  0
    3.4542   -2.0250    0.0000 C   0  0  0  0  0  0  0  0  0  0  0  0
    4.1667   -3.2667    0.0000 N   0  0  0  0  0  0  0  0  0  0  0  0
    3.4542   -2.8500    0.0000 C   0  0  0  0  0  0  0  0  0  0  0  0
    4.8917   -1.2042    0.0000 O   0  0  0  0  0  0  0  0  0  0  0  0
    5.6000   -2.4417    0.0000 O   0  0  0  0  0  0  0  0  0  0  0  0
    5.6042   -3.2667    0.0000 O   0  0  0  0  0  0  0  0  0  0  0  0
    2.7417   -1.6125    0.0000 C   0  0  0  0  0  0  0  0  0  0  0  0
    6.3125   -1.2042    0.0000 C   0  0  0  0  0  0  0  0  0  0  0  0
    2.7417   -3.2667    0.0000 C   0  0  0  0  0  0  0  0  0  0  0  0
    5.6000   -0.7917    0.0000 C   0  0  0  0  0  0  0  0  0  0  0  0
    6.3125   -2.0292    0.0000 C   0  0  0  0  0  0  0  0  0  0  0  0
    2.0292   -2.0250    0.0000 C   0  0  0  0  0  0  0  0  0  0  0  0
    2.0292   -2.8542    0.0000 C   0  0  0  0  0  0  0  0  0  0  0  0
  2  1  1  0
  3  1  1  0
  4  2  1  0
  5  3  1  0
  6  1  1  0
  7  1  1  0
  8  2  2  0
  9  3  2  0
 10 13  1  0
 11  5  2  0
 12  6  1  0
 13  7  1  0
 14  9  1  0
 15 14  2  0
 10 12  1  0
  4  5  1  0
 15 11  1  0
M  END

> <chembl_id>
CHEMBL6390

> <chembl_pref_name>
None

$$$$

     RDKit          2D

 36 39  0  0  1  0  0  0  0  0999 V2000
   -7.2792   -0.5750    0.0000 C   0  0  0  0  0  0  0  0  0  0  0  0
   -6.5667   -0.9875    0.0000 C   0  0  0  0  0  0  0  0  0  0  0  0
   -7.9917   -0.9792    0.0000 N   0  0  0  0  0  0  0  0  0  0  0  0
   -7.2792   -2.2167    0.0000 N   0  0  0  0  0  0  0  0  0  0  0  0
   -0.1583    0.2833    0.0000 N   0  0  0  0  0  0  0  0  0  0  0  0
   -6.5750   -1.8042    0.0000 C   0  0  0  0  0  0  0  0  0  0  0  0
   -7.9917   -1.8000    0.0000 C   0  0  0  0  0  0  0  0  0  0  0  0
   -0.8708    0.6875    0.0000 C   0  0  0  0  0  0  0  0  0  0  0  0
    0.5542    0.6958    0.0000 C   0  0  0  0  0  0  0  0  0  0  0  0
    1.2750    0.2833    0.0000 C   0  0  0  0  0  0  0  0  0  0  0  0
   -3.7208   -0.9667    0.0000 N   0  0  0  0  0  0  0  0  0  0  0  0
   -3.0250   -2.2375    0.0000 C   0  0  0  0  0  0  0  0  0  0  0  0
   -2.3208   -2.6792    0.0000 C   0  0  0  0  0  0  0  0  0  0  0  0
   -5.8625   -0.5667    0.0000 C   0  0  0  0  0  0  0  0  0  0  0  0
   -1.5833    0.2708    0.0000 C   0  0  0  0  0  0  0  0  0  0  0  0
   -3.0083   -0.5542    0.0000 C   0  0  0  0  0  0  0  0  0  0  0  0
   -7.2667    0.2500    0.0000 O   0  0  0  0  0  0  0  0  0  0  0  0
   -4.4333   -0.5625    0.0000 C   0  0  0  0  0  0  0  0  0  0  0  0
   -0.8708    1.5125    0.0000 O   0  0  0  0  0  0  0  0  0  0  0  0
   -5.1458   -0.9792    0.0000 C   0  0  0  0  0  0  0  0  0  0  0  0
    1.2792   -0.5417    0.0000 O   0  0  0  0  0  0  0  0  0  0  0  0
   -5.8625   -2.2167    0.0000 C   0  0  0  0  0  0  0  0  0  0  0  0
    0.5542    1.5208    0.0000 C   0  0  0  0  0  0  0  0  0  0  0  0
   -2.3000    0.6833    0.0000 C   0  0  0  0  0  0  0  0  0  0  0  0
   -1.5833   -0.5542    0.0000 C   0  0  0  0  0  0  0  0  0  0  0  0
   -3.0125    0.2625    0.0000 C   0  0  0  0  0  0  0  0  0  0  0  0
   -2.2958   -0.9667    0.0000 C   0  0  0  0  0  0  0  0  0  0  0  0
   -3.7208   -1.7917    0.0000 C   0  0  0  0  0  0  0  0  0  0  0  0
    1.9875    0.7000    0.0000 O   0  0  0  0  0  0  0  0  0  0  0  0
   -5.1458   -1.8042    0.0000 C   0  0  0  0  0  0  0  0  0  0  0  0
   -8.7125   -2.2042    0.0000 C   0  0  0  0  0  0  0  0  0  0  0  0
    1.2667    1.9333    0.0000 C   0  0  0  0  0  0  0  0  0  0  0  0
   -0.1583    1.9250    0.0000 C   0  0  0  0  0  0  0  0  0  0  0  0
   -0.1708    2.7458    0.0000 C   0  0  0  0  0  0  0  0  0  0  0  0
    1.2667    2.7583    0.0000 C   0  0  0  0  0  0  0  0  0  0  0  0
    0.5500    3.1708    0.0000 C   0  0  0  0  0  0  0  0  0  0  0  0
  2  1  1  0
  3  1  2  0
  4  7  2  0
  5  8  1  0
  6  2  2  0
  7  3  1  0
  8 15  1  0
  9  5  1  0
 10  9  1  0
 11 18  1  0
 12 28  1  0
 13 12  3  0
 14  2  1  0
 15 25  2  0
 16 11  1  0
 17  1  1  0
 18 20  1  0
 19  8  2  0
 20 14  2  0
 21 10  2  0
 22  6  1  0
  9 23  1  6
 24 26  2  0
 25 27  1  0
 26 16  1  0
 27 16  2  0
 28 11  1  0
 29 10  1  0
 30 20  1  0
 31  7  1  0
 32 23  2  0
 33 23  1  0
 34 33  2  0
 35 32  1  0
 36 34  1  0
  4  6  1  0
 30 22  2  0
 24 15  1  0
 36 35  2  0
M  END

> <chembl_id>
CHEMBL266956

> <chembl_pref_name>
None

$$$$

     RDKit          2D

 40 45  0  0  1  0  0  0  0  0999 V2000
    7.9667   -7.1292    0.0000 C   0  0  0  0  0  0  0  0  0  0  0  0
    7.9667   -6.3417    0.0000 C   0  0  0  0  0  0  0  0  0  0  0  0
    5.8042   -7.5250    0.0000 C   0  0  0  0  0  0  0  0  0  0  0  0
    8.7250   -5.0750    0.0000 C   0  0  0  0  0  0  0  0  0  0  0  0
    7.2625   -7.5250    0.0000 C   0  0  0  0  0  0  0  0  0  0  0  0
    8.7250   -5.9375    0.0000 C   0  0  0  0  0  0  0  0  0  0  0  0
    9.4125   -7.1292    0.0000 C   0  0  0  0  0  0  0  0  0  0  0  0
    6.5250   -7.1292    0.0000 C   0  0  0  0  0  0  0  0  0  0  0  0
    9.4125   -6.3417    0.0000 C   0  0  0  0  0  0  0  0  0  0  0  0
    3.1250   -8.4792    0.0000 C   0  0  0  0  0  0  0  0  0  0  0  0
    2.7792   -7.8917    0.0000 O   0  0  0  0  0  0  0  0  0  0  0  0
    8.0042   -4.6292    0.0000 C   0  0  0  0  0  0  0  0  0  0  0  0
    2.7917   -9.0750    0.0000 C   0  0  0  0  0  0  0  0  0  0  0  0
    5.8042   -8.3792    0.0000 C   0  0  0  0  0  0  0  0  0  0  0  0
    1.7625   -8.4917    0.0000 C   0  0  0  0  0  0  0  0  0  0  0  0
    7.2625   -5.9375    0.0000 C   0  0  0  0  0  0  0  0  0  0  0  0
    2.1042   -9.0792    0.0000 C   0  0  0  0  0  0  0  0  0  0  0  0
    8.2292   -3.7917    0.0000 C   0  0  0  0  0  0  0  0  0  0  0  0
    2.1000   -7.9042    0.0000 C   0  0  0  0  0  0  0  0  0  0  0  0
    6.5250   -6.3417    0.0000 C   0  0  0  0  0  0  0  0  0  0  0  0
    9.1500   -3.7917    0.0000 O   0  0  0  0  0  0  0  0  0  0  0  0
    5.1167   -7.1292    0.0000 C   0  0  0  0  0  0  0  0  0  0  0  0
    7.2625   -8.3792    0.0000 C   0  0  0  0  0  0  0  0  0  0  0  0
    9.4042   -4.5417    0.0000 C   0  0  0  0  0  0  0  0  0  0  0  0
    3.7750   -8.7917    0.0000 O   0  0  0  0  0  0  0  0  0  0  0  0
    5.1167   -8.7667    0.0000 C   0  0  0  0  0  0  0  0  0  0  0  0
    6.5250   -8.7667    0.0000 C   0  0  0  0  0  0  0  0  0  0  0  0
   10.7875   -6.3417    0.0000 C   0  0  0  0  0  0  0  0  0  0  0  0
    7.9667   -8.1125    0.0000 O   0  0  0  0  0  0  0  0  0  0  0  0
    7.7125   -3.1875    0.0000 O   0  0  0  0  0  0  0  0  0  0  0  0
    4.3625   -8.3792    0.0000 C   0  0  0  0  0  0  0  0  0  0  0  0
   10.7792   -7.1667    0.0000 O   0  0  0  0  0  0  0  0  0  0  0  0
   10.1000   -5.9417    0.0000 O   0  0  0  0  0  0  0  0  0  0  0  0
    7.9667   -5.4292    0.0000 C   0  0  0  0  0  0  0  0  0  0  0  0
    4.3625   -7.5250    0.0000 C   0  0  0  0  0  0  0  0  0  0  0  0
    1.0792   -8.5000    0.0000 O   0  0  0  0  0  0  0  0  0  0  0  0
    1.7667   -9.6667    0.0000 O   0  0  0  0  0  0  0  0  0  0  0  0
    5.8042   -6.6917    0.0000 C   0  0  0  0  0  0  0  0  0  0  0  0
    1.7500   -7.3167    0.0000 C   0  0  0  0  0  0  0  0  0  0  0  0
    9.3125   -5.5917    0.0000 H   0  0  0  0  0  0  0  0  0  0  0  0
  2  1  1  0
  3  8  1  0
  4  6  1  0
  5  1  1  0
  6  2  1  0
  7  1  1  0
  8  5  1  0
  9  7  1  0
 10 25  1  0
 11 10  1  0
 12  4  2  0
 13 10  1  0
 14 27  1  0
 15 17  1  0
 16  2  1  0
 17 13  1  0
 18 12  1  0
 19 11  1  0
 20  8  1  0
 21 24  1  0
 22  3  1  0
 23  5  1  0
 24  4  1  0
 25 31  1  0
 26 14  1  0
 27 23  1  0
 28 33  1  0
 29  1  1  0
 30 18  2  0
 31 26  1  0
 32 28  2  0
 33  9  1  0
 34  2  1  0
 35 22  1  0
 36 15  1  0
 37 17  1  0
 38  3  1  0
 39 19  1  0
  6 40  1  6
  9  6  1  0
 20 16  1  0
 14  3  1  0
 31 35  1  0
 21 18  1  0
 15 19  1  0
M  END

> <chembl_id>
CHEMBL441173

> <chembl_pref_name>
None

$$$$

     RDKit          2D

 11 12  0  0  0  0  0  0  0  0999 V2000
    3.2667   -0.1542    0.0000 C   0  0  0  0  0  0  0  0  0  0  0  0
    3.3000   -1.4917    0.0000 N   0  0  0  0  0  0  0  0  0  0  0  0
    3.7625   -0.8250    0.0000 C   0  0  0  0  0  0  0  0  0  0  0  0
    2.4875   -0.4292    0.0000 C   0  0  0  0  0  0  0  0  0  0  0  0
    2.5042   -1.2542    0.0000 C   0  0  0  0  0  0  0  0  0  0  0  0
    3.5875    0.6000    0.0000 C   0  0  0  0  0  0  0  0  0  0  0  0
    4.4042    0.7083    0.0000 N   0  0  0  0  0  0  0  0  0  0  0  0
    1.7667   -0.0417    0.0000 C   0  0  0  0  0  0  0  0  0  0  0  0
    1.8042   -1.6875    0.0000 C   0  0  0  0  0  0  0  0  0  0  0  0
    1.0542   -0.4667    0.0000 C   0  0  0  0  0  0  0  0  0  0  0  0
    1.0750   -1.2875    0.0000 C   0  0  0  0  0  0  0  0  0  0  0  0
  2  3  1  0
  3  1  2  0
  4  1  1  0
  5  4  1  0
  6  1  1  0
  7  6  1  0
  8  4  2  0
  9  5  2  0
 10  8  1  0
 11 10  2  0
  2  5  1  0
 11  9  1  0
M  END

> <chembl_id>
CHEMBL6509

> <chembl_pref_name>
None

$$$$

     RDKit          2D

 26 28  0  0  0  0  0  0  0  0999 V2000
    4.3542   -3.9667    0.0000 S   0  0  0  0  0  0  0  0  0  0  0  0
    5.0625   -4.3792    0.0000 N   0  0  0  0  0  0  0  0  0  0  0  0
    5.7792   -3.9542    0.0000 C   0  0  0  0  0  0  0  0  0  0  0  0
    4.3542   -3.1167    0.0000 C   0  0  0  0  0  0  0  0  0  0  0  0
    7.2125   -3.9417    0.0000 N   0  0  0  0  0  0  0  0  0  0  0  0
    6.5042   -4.3667    0.0000 C   0  0  0  0  0  0  0  0  0  0  0  0
    3.6292   -2.7250    0.0000 C   0  0  0  0  0  0  0  0  0  0  0  0
    5.7667   -3.1167    0.0000 N   0  0  0  0  0  0  0  0  0  0  0  0
    3.6292   -1.8917    0.0000 C   0  0  0  0  0  0  0  0  0  0  0  0
    2.9042   -1.4792    0.0000 C   0  0  0  0  0  0  0  0  0  0  0  0
    3.5167   -3.9542    0.0000 O   0  0  0  0  0  0  0  0  0  0  0  0
    4.3417   -4.7917    0.0000 O   0  0  0  0  0  0  0  0  0  0  0  0
    7.2125   -3.1167    0.0000 C   0  0  0  0  0  0  0  0  0  0  0  0
    2.9042   -0.6417    0.0000 N   0  0  0  0  0  0  0  0  0  0  0  0
    6.4875   -2.7042    0.0000 C   0  0  0  0  0  0  0  0  0  0  0  0
    6.5042   -5.2000    0.0000 O   0  0  0  0  0  0  0  0  0  0  0  0
    7.9250   -2.7000    0.0000 Cl  0  0  0  0  0  0  0  0  0  0  0  0
    5.0667   -2.7167    0.0000 C   0  0  0  0  0  0  0  0  0  0  0  0
    4.3417   -1.4667    0.0000 C   0  0  0  0  0  0  0  0  0  0  0  0
    2.9042   -3.1417    0.0000 C   0  0  0  0  0  0  0  0  0  0  0  0
    2.1917   -1.8917    0.0000 C   0  0  0  0  0  0  0  0  0  0  0  0
    2.1917   -2.7250    0.0000 C   0  0  0  0  0  0  0  0  0  0  0  0
    5.0667   -1.8875    0.0000 C   0  0  0  0  0  0  0  0  0  0  0  0
    3.6292   -0.2167    0.0000 C   0  0  0  0  0  0  0  0  0  0  0  0
    2.1875   -0.2292    0.0000 C   0  0  0  0  0  0  0  0  0  0  0  0
    7.2292   -5.6042    0.0000 C   0  0  0  0  0  0  0  0  0  0  0  0
  2  1  1  0
  3  2  1  0
  4  1  1  0
  5  6  2  0
  6  3  1  0
  7  4  1  0
  8  3  2  0
  9  7  2  0
 10  9  1  0
 11  1  2  0
 12  1  2  0
 13 15  2  0
 14 10  1  0
 15  8  1  0
 16  6  1  0
 17 13  1  0
 18  4  2  0
 19 23  2  0
 20  7  1  0
 21 22  1  0
 22 20  2  0
 23 18  1  0
 24 14  1  0
 25 14  1  0
 26 16  1  0
 19  9  1  0
 21 10  2  0
 13  5  1  0
M  END

> <chembl_id>
CHEMBL6412

> <chembl_pref_name>
None

$$$$

     RDKit          2D

 15 15  0  0  0  0  0  0  0  0999 V2000
    1.4999  -13.9087    0.0000 C   0  0  0  0  0  0  0  0  0  0  0  0
    0.7850  -13.4968    0.0000 C   0  0  0  0  0  0  0  0  0  0  0  0
    0.7850  -12.6729    0.0000 C   0  0  0  0  0  0  0  0  0  0  0  0
    0.0701  -13.9087    0.0000 N   0  0  0  0  0  0  0  0  0  0  0  0
    2.2106  -13.4968    0.0000 C   0  0  0  0  0  0  0  0  0  0  0  0
    2.2106  -12.6729    0.0000 C   0  0  0  0  0  0  0  0  0  0  0  0
    2.9254  -12.2610    0.0000 C   0  0  0  0  0  0  0  0  0  0  0  0
    3.6403  -12.6729    0.0000 C   0  0  0  0  0  0  0  0  0  0  0  0
    3.6403  -13.4968    0.0000 C   0  0  0  0  0  0  0  0  0  0  0  0
    2.9254  -13.9087    0.0000 C   0  0  0  0  0  0  0  0  0  0  0  0
    4.3510  -13.9087    0.0000 O   0  0  0  0  0  0  0  0  0  0  0  0
    5.0659  -13.4968    0.0000 C   0  0  0  0  0  0  0  0  0  0  0  0
    1.4999  -12.2610    0.0000 O   0  0  0  0  0  0  0  0  0  0  0  0
    1.4999  -11.4371    0.0000 C   0  0  0  0  0  0  0  0  0  0  0  0
    4.3510  -12.2610    0.0000 I   0  0  0  0  0  0  0  0  0  0  0  0
  1  2  1  0
  2  3  1  0
  2  4  1  0
  5  6  1  0
  6  7  2  0
  7  8  1  0
  8  9  2  0
  9 10  1  0
  5 10  2  0
 11 12  1  0
  9 11  1  0
 13 14  1  0
  6 13  1  0
  8 15  1  0
  1  5  1  0
M  END

> <chembl_id>
CHEMBL6616

> <chembl_pref_name>
None

$$$$

     RDKit          2D

 15 16  0  0  0  0  0  0  0  0999 V2000
    1.8455   -3.9650    0.0000 C   0  0  0  0  0  0  0  0  0  0  0  0
    2.5619   -3.5516    0.0000 C   0  0  0  0  0  0  0  0  0  0  0  0
    2.5590   -2.7212    0.0000 C   0  0  0  0  0  0  0  0  0  0  0  0
    1.8436   -2.3120    0.0000 C   0  0  0  0  0  0  0  0  0  0  0  0
    1.1306   -3.5521    0.0000 C   0  0  0  0  0  0  0  0  0  0  0  0
    1.1319   -2.7232    0.0000 C   0  0  0  0  0  0  0  0  0  0  0  0
    0.3440   -2.4659    0.0000 O   0  0  0  0  0  0  0  0  0  0  0  0
   -0.1474   -3.1358    0.0000 C   0  0  0  0  0  0  0  0  0  0  0  0
    0.3420   -3.8070    0.0000 O   0  0  0  0  0  0  0  0  0  0  0  0
    3.2719   -2.3060    0.0000 C   0  0  0  0  0  0  0  0  0  0  0  0
    3.9878   -2.7157    0.0000 C   0  0  0  0  0  0  0  0  0  0  0  0
    4.7007   -2.3006    0.0000 N   0  0  0  0  0  0  0  0  0  0  0  0
    3.9909   -3.5407    0.0000 C   0  0  0  0  0  0  0  0  0  0  0  0
    5.4166   -2.7104    0.0000 C   0  0  0  0  0  0  0  0  0  0  0  0
    4.7069   -3.9504    0.0000 C   0  0  0  0  0  0  0  0  0  0  0  0
  5  1  1  0
  1  2  2  0
  2  3  1  0
  3  4  2  0
  4  6  1  0
  5  6  2  0
  6  7  1  0
  7  8  1  0
  8  9  1  0
  9  5  1  0
  3 10  1  0
 10 11  1  0
 11 12  1  0
 11 13  1  0
 12 14  1  0
 13 15  1  0
M  END

> <chembl_id>
CHEMBL268689

> <chembl_pref_name>
None

$$$$

     RDKit          2D

 24 25  0  0  0  0  0  0  0  0999 V2000
    2.5167   -2.4792    0.0000 C   0  0  0  0  0  0  0  0  0  0  0  0
    4.6625   -2.0542    0.0000 C   0  0  0  0  0  0  0  0  0  0  0  0
    1.0917   -3.3042    0.0000 C   0  0  0  0  0  0  0  0  0  0  0  0
    6.0875   -1.2292    0.0000 C   0  0  0  0  0  0  0  0  0  0  0  0
    1.8042   -3.7167    0.0000 C   0  0  0  0  0  0  0  0  0  0  0  0
    6.0875   -2.0542    0.0000 C   0  0  0  0  0  0  0  0  0  0  0  0
    1.0917   -2.4792    0.0000 C   0  0  0  0  0  0  0  0  0  0  0  0
    5.3625   -0.8167    0.0000 C   0  0  0  0  0  0  0  0  0  0  0  0
    3.2292   -2.0625    0.0000 C   0  0  0  0  0  0  0  0  0  0  0  0
    3.9500   -2.4667    0.0000 C   0  0  0  0  0  0  0  0  0  0  0  0
    1.8042   -2.0667    0.0000 C   0  0  0  0  0  0  0  0  0  0  0  0
    2.5167   -3.3042    0.0000 C   0  0  0  0  0  0  0  0  0  0  0  0
    5.3750   -2.4667    0.0000 C   0  0  0  0  0  0  0  0  0  0  0  0
    4.6542   -1.2375    0.0000 C   0  0  0  0  0  0  0  0  0  0  0  0
    0.3792   -2.0667    0.0000 I   0  0  0  0  0  0  0  0  0  0  0  0
    1.8042   -4.5417    0.0000 I   0  0  0  0  0  0  0  0  0  0  0  0
    5.3542    0.0083    0.0000 I   0  0  0  0  0  0  0  0  0  0  0  0
    6.8000   -2.4667    0.0000 I   0  0  0  0  0  0  0  0  0  0  0  0
    6.7917   -0.8125    0.0000 O   0  0  0  0  0  0  0  0  0  0  0  0
    0.3792   -3.7167    0.0000 O   0  0  0  0  0  0  0  0  0  0  0  0
    3.2292   -1.2375    0.0000 C   0  0  0  0  0  0  0  0  0  0  0  0
    3.9500   -3.2917    0.0000 C   0  0  0  0  0  0  0  0  0  0  0  0
    2.5042   -0.8292    0.0000 C   0  0  0  0  0  0  0  0  0  0  0  0
    4.6667   -3.7042    0.0000 C   0  0  0  0  0  0  0  0  0  0  0  0
  2 10  1  0
  3  5  1  0
  4  8  1  0
  5 12  2  0
  6 13  1  0
  7 11  1  0
  8 14  2  0
  9  1  1  0
 10  9  1  0
 11  1  2  0
 12  1  1  0
 13  2  2  0
 14  2  1  0
 15  7  1  0
 16  5  1  0
 17  8  1  0
 18  6  1  0
 19  4  1  0
 20  3  1  0
 21  9  1  0
 22 10  1  0
 23 21  1  0
 24 22  1  0
  7  3  2  0
  6  4  2  0
M  END

> <chembl_id>
CHEMBL6472

> <chembl_pref_name>
None

$$$$

     RDKit          2D

 14 16  0  0  0  0  0  0  0  0999 V2000
   -1.2458    1.1458    0.0000 N   0  0  0  0  0  0  0  0  0  0  0  0
   -0.7833    1.8125    0.0000 C   0  0  0  0  0  0  0  0  0  0  0  0
   -1.2708    2.4750    0.0000 C   0  0  0  0  0  0  0  0  0  0  0  0
   -2.0500    2.2083    0.0000 C   0  0  0  0  0  0  0  0  0  0  0  0
   -2.0375    1.3833    0.0000 C   0  0  0  0  0  0  0  0  0  0  0  0
    0.3792    2.6708    0.0000 N   0  0  0  0  0  0  0  0  0  0  0  0
   -2.7750    2.5958    0.0000 C   0  0  0  0  0  0  0  0  0  0  0  0
    0.0417    1.9125    0.0000 C   0  0  0  0  0  0  0  0  0  0  0  0
   -2.7958    3.4208    0.0000 Br  0  0  0  0  0  0  0  0  0  0  0  0
   -0.9500    3.2375    0.0000 C   0  0  0  0  0  0  0  0  0  0  0  0
   -2.7375    0.9500    0.0000 C   0  0  0  0  0  0  0  0  0  0  0  0
   -0.1333    3.3458    0.0000 C   0  0  0  0  0  0  0  0  0  0  0  0
   -3.4708    1.3500    0.0000 C   0  0  0  0  0  0  0  0  0  0  0  0
   -3.4833    2.1708    0.0000 C   0  0  0  0  0  0  0  0  0  0  0  0
  2  1  1  0
  3  2  2  0
  4  5  1  0
  5  1  1  0
  6  8  2  0
  7  4  2  0
  8  2  1  0
  9  7  1  0
 10  3  1  0
 11  5  2  0
 12  6  1  0
 13 11  1  0
 14 13  2  0
  4  3  1  0
 14  7  1  0
 10 12  1  0
M  END

> <chembl_id>
CHEMBL267599

> <chembl_pref_name>
None

$$$$

     RDKit          2D

 37 40  0  0  1  0  0  0  0  0999 V2000
   -6.2167   -0.6167    0.0000 C   0  0  0  0  0  0  0  0  0  0  0  0
   -5.5208   -1.0292    0.0000 C   0  0  0  0  0  0  0  0  0  0  0  0
   -6.9292   -1.0250    0.0000 N   0  0  0  0  0  0  0  0  0  0  0  0
   -6.2292   -2.2625    0.0000 N   0  0  0  0  0  0  0  0  0  0  0  0
    0.9042    0.2333    0.0000 N   0  0  0  0  0  0  0  0  0  0  0  0
   -5.5208   -1.8542    0.0000 C   0  0  0  0  0  0  0  0  0  0  0  0
   -6.9375   -1.8417    0.0000 C   0  0  0  0  0  0  0  0  0  0  0  0
    0.1917    0.6458    0.0000 C   0  0  0  0  0  0  0  0  0  0  0  0
    1.6167    0.6458    0.0000 C   0  0  0  0  0  0  0  0  0  0  0  0
    2.3292    0.2375    0.0000 C   0  0  0  0  0  0  0  0  0  0  0  0
    1.6125    1.4708    0.0000 C   0  0  0  0  0  0  0  0  0  0  0  0
   -2.6583   -1.0167    0.0000 N   0  0  0  0  0  0  0  0  0  0  0  0
   -1.9708   -2.2875    0.0000 C   0  0  0  0  0  0  0  0  0  0  0  0
   -1.2674   -2.7436    0.0000 C   0  0  0  0  0  0  0  0  0  0  0  0
   -4.8083   -0.6125    0.0000 C   0  0  0  0  0  0  0  0  0  0  0  0
   -0.5208    0.2250    0.0000 C   0  0  0  0  0  0  0  0  0  0  0  0
   -1.9458   -0.6042    0.0000 C   0  0  0  0  0  0  0  0  0  0  0  0
   -6.2125    0.2083    0.0000 O   0  0  0  0  0  0  0  0  0  0  0  0
   -3.3750   -0.6042    0.0000 C   0  0  0  0  0  0  0  0  0  0  0  0
    0.1875    1.4708    0.0000 O   0  0  0  0  0  0  0  0  0  0  0  0
   -4.0958   -1.0250    0.0000 C   0  0  0  0  0  0  0  0  0  0  0  0
    2.3292    1.8958    0.0000 C   0  0  0  0  0  0  0  0  0  0  0  0
    2.3375   -0.5875    0.0000 O   0  0  0  0  0  0  0  0  0  0  0  0
   -4.8083   -2.2667    0.0000 C   0  0  0  0  0  0  0  0  0  0  0  0
   -0.5208   -0.6000    0.0000 C   0  0  0  0  0  0  0  0  0  0  0  0
   -1.2458    0.6333    0.0000 C   0  0  0  0  0  0  0  0  0  0  0  0
   -1.2333   -1.0167    0.0000 C   0  0  0  0  0  0  0  0  0  0  0  0
   -1.9583    0.2208    0.0000 C   0  0  0  0  0  0  0  0  0  0  0  0
   -2.6583   -1.8417    0.0000 C   0  0  0  0  0  0  0  0  0  0  0  0
    3.0417    0.6583    0.0000 O   0  0  0  0  0  0  0  0  0  0  0  0
    2.3167    2.7125    0.0000 C   0  0  0  0  0  0  0  0  0  0  0  0
   -4.0958   -1.8542    0.0000 C   0  0  0  0  0  0  0  0  0  0  0  0
    3.0375    3.1250    0.0000 O   0  0  0  0  0  0  0  0  0  0  0  0
   -7.6542   -2.2542    0.0000 C   0  0  0  0  0  0  0  0  0  0  0  0
    0.9000    1.8833    0.0000 C   0  0  0  0  0  0  0  0  0  0  0  0
    0.8917    2.7083    0.0000 C   0  0  0  0  0  0  0  0  0  0  0  0
    1.6042    3.1208    0.0000 C   0  0  0  0  0  0  0  0  0  0  0  0
  2  1  1  0
  3  1  2  0
  4  7  2  0
  5  8  1  0
  6  2  2  0
  7  3  1  0
  8 16  1  0
  9  5  1  0
 10  9  1  0
  9 11  1  6
 12 19  1  0
 13 29  1  0
 14 13  3  0
 15  2  1  0
 16 26  1  0
 17 12  1  0
 18  1  1  0
 19 21  1  0
 20  8  2  0
 21 15  2  0
 22 11  2  0
 23 10  2  0
 24  6  1  0
 25 27  1  0
 26 28  2  0
 27 17  2  0
 28 17  1  0
 29 12  1  0
 30 10  1  0
 31 22  1  0
 32 21  1  0
 33 31  1  0
 34  7  1  0
 35 11  1  0
 36 35  2  0
 37 36  1  0
  6  4  1  0
 24 32  2  0
 25 16  2  0
 31 37  2  0
M  END

> <chembl_id>
CHEMBL6639

> <chembl_pref_name>
None

$$$$

     RDKit          2D

 12 13  0  0  0  0  0  0  0  0999 V2000
   10.4622  -20.3525    0.0000 C   0  0  0  0  0  0  0  0  0  0  0  0
   10.4610  -21.1793    0.0000 C   0  0  0  0  0  0  0  0  0  0  0  0
   11.1754  -21.5919    0.0000 C   0  0  0  0  0  0  0  0  0  0  0  0
   11.1736  -19.9401    0.0000 C   0  0  0  0  0  0  0  0  0  0  0  0
   12.6746  -20.0951    0.0000 N   0  0  0  0  0  0  0  0  0  0  0  0
   11.8884  -20.3489    0.0000 C   0  0  0  0  0  0  0  0  0  0  0  0
   11.8881  -21.1757    0.0000 C   0  0  0  0  0  0  0  0  0  0  0  0
   12.6749  -21.4303    0.0000 C   0  0  0  0  0  0  0  0  0  0  0  0
   13.1589  -20.7598    0.0000 C   0  0  0  0  0  0  0  0  0  0  0  0
   12.9313  -22.2138    0.0000 C   0  0  0  0  0  0  0  0  0  0  0  0
   12.3810  -22.8276    0.0000 C   0  0  0  0  0  0  0  0  0  0  0  0
   12.6374  -23.6111    0.0000 N   0  0  0  0  0  0  0  0  0  0  0  0
  2  3  1  0
  3  7  2  0
  1  2  2  0
  6  4  2  0
  5  6  1  0
  7  8  1  0
  8  9  2  0
  9  5  1  0
  4  1  1  0
  8 10  1  0
  6  7  1  0
 10 11  1  0
 11 12  1  0
M  END

> <chembl_id>
CHEMBL6640

> <chembl_pref_name>
TRYPTAMINE

$$$$

     RDKit          2D

 34 37  0  0  0  0  0  0  0  0999 V2000
    1.5667   -4.1542    0.0000 C   0  0  0  0  0  0  0  0  0  0  0  0
    2.2792   -4.5667    0.0000 C   0  0  0  0  0  0  0  0  0  0  0  0
    0.8542   -4.5625    0.0000 N   0  0  0  0  0  0  0  0  0  0  0  0
    1.5667   -5.8000    0.0000 N   0  0  0  0  0  0  0  0  0  0  0  0
    2.2667   -5.3917    0.0000 C   0  0  0  0  0  0  0  0  0  0  0  0
    0.8542   -5.3792    0.0000 C   0  0  0  0  0  0  0  0  0  0  0  0
    7.9750   -2.8917    0.0000 C   0  0  0  0  0  0  0  0  0  0  0  0
    5.1250   -4.5542    0.0000 N   0  0  0  0  0  0  0  0  0  0  0  0
    5.8167   -5.8167    0.0000 C   0  0  0  0  0  0  0  0  0  0  0  0
    6.5250   -6.2667    0.0000 C   0  0  0  0  0  0  0  0  0  0  0  0
    8.6875   -3.3042    0.0000 N   0  0  0  0  0  0  0  0  0  0  0  0
    2.9792   -4.1500    0.0000 C   0  0  0  0  0  0  0  0  0  0  0  0
    7.2625   -3.3125    0.0000 C   0  0  0  0  0  0  0  0  0  0  0  0
    5.8375   -4.1417    0.0000 C   0  0  0  0  0  0  0  0  0  0  0  0
    1.5792   -3.3292    0.0000 O   0  0  0  0  0  0  0  0  0  0  0  0
    4.4125   -4.1417    0.0000 C   0  0  0  0  0  0  0  0  0  0  0  0
    3.7000   -4.5625    0.0000 C   0  0  0  0  0  0  0  0  0  0  0  0
    7.9750   -2.0667    0.0000 O   0  0  0  0  0  0  0  0  0  0  0  0
    2.9792   -5.8042    0.0000 C   0  0  0  0  0  0  0  0  0  0  0  0
    6.5417   -2.9042    0.0000 C   0  0  0  0  0  0  0  0  0  0  0  0
    7.2625   -4.1292    0.0000 C   0  0  0  0  0  0  0  0  0  0  0  0
    5.8292   -3.3167    0.0000 C   0  0  0  0  0  0  0  0  0  0  0  0
    6.5500   -4.5542    0.0000 C   0  0  0  0  0  0  0  0  0  0  0  0
    9.4000   -2.8917    0.0000 C   0  0  0  0  0  0  0  0  0  0  0  0
    5.1250   -5.3792    0.0000 C   0  0  0  0  0  0  0  0  0  0  0  0
    3.7000   -5.3917    0.0000 C   0  0  0  0  0  0  0  0  0  0  0  0
    9.3917   -0.4167    0.0000 C   0  0  0  0  0  0  0  0  0  0  0  0
    9.4000   -2.0667    0.0000 C   0  0  0  0  0  0  0  0  0  0  0  0
    9.3875    0.4083    0.0000 Cl  0  0  0  0  0  0  0  0  0  0  0  0
    8.6750   -0.8375    0.0000 C   0  0  0  0  0  0  0  0  0  0  0  0
   10.1125   -0.8250    0.0000 C   0  0  0  0  0  0  0  0  0  0  0  0
    8.6875   -1.6542    0.0000 C   0  0  0  0  0  0  0  0  0  0  0  0
   10.1125   -1.6500    0.0000 C   0  0  0  0  0  0  0  0  0  0  0  0
    0.1292   -5.7917    0.0000 C   0  0  0  0  0  0  0  0  0  0  0  0
  2  1  1  0
  3  1  2  0
  4  6  2  0
  5  2  2  0
  6  3  1  0
  7 13  1  0
  8 16  1  0
  9 25  1  0
 10  9  3  0
 11  7  1  0
 12  2  1  0
 13 21  2  0
 14  8  1  0
 15  1  1  0
 16 17  1  0
 17 12  2  0
 18  7  2  0
 19  5  1  0
 20 22  2  0
 21 23  1  0
 22 14  1  0
 23 14  2  0
 24 11  1  0
 25  8  1  0
 26 17  1  0
 27 31  2  0
 28 24  1  0
 29 27  1  0
 30 32  2  0
 31 33  1  0
 32 28  1  0
 33 28  2  0
 34  6  1  0
  4  5  1  0
 26 19  2  0
 13 20  1  0
 27 30  1  0
M  END

> <chembl_id>
CHEMBL268854

> <chembl_pref_name>
None

$$$$

     RDKit          2D

 19 21  0  0  0  0  0  0  0  0999 V2000
    4.0167   -2.8417    0.0000 C   0  0  0  0  0  0  0  0  0  0  0  0
    4.0250   -3.6667    0.0000 C   0  0  0  0  0  0  0  0  0  0  0  0
    3.3042   -2.4292    0.0000 C   0  0  0  0  0  0  0  0  0  0  0  0
    4.8125   -3.9167    0.0000 S   0  0  0  0  0  0  0  0  0  0  0  0
    4.8042   -2.5792    0.0000 C   0  0  0  0  0  0  0  0  0  0  0  0
    3.3042   -4.0792    0.0000 N   0  0  0  0  0  0  0  0  0  0  0  0
    5.2917   -3.2417    0.0000 C   0  0  0  0  0  0  0  0  0  0  0  0
    2.5917   -2.8417    0.0000 N   0  0  0  0  0  0  0  0  0  0  0  0
    3.3000   -1.6042    0.0000 S   0  0  0  0  0  0  0  0  0  0  0  0
    2.5917   -3.6667    0.0000 C   0  0  0  0  0  0  0  0  0  0  0  0
    2.7292   -1.0042    0.0000 C   0  0  0  0  0  0  0  0  0  0  0  0
    1.6042    0.1958    0.0000 C   0  0  0  0  0  0  0  0  0  0  0  0
    1.9375   -1.2000    0.0000 C   0  0  0  0  0  0  0  0  0  0  0  0
    2.9750   -0.2167    0.0000 C   0  0  0  0  0  0  0  0  0  0  0  0
    2.4125    0.3833    0.0000 C   0  0  0  0  0  0  0  0  0  0  0  0
    1.3667   -0.6042    0.0000 C   0  0  0  0  0  0  0  0  0  0  0  0
    6.1167   -3.2417    0.0000 C   0  0  0  0  0  0  0  0  0  0  0  0
    1.0417    0.7875    0.0000 C   0  0  0  0  0  0  0  0  0  0  0  0
    6.5292   -2.5250    0.0000 C   0  0  0  0  0  0  0  0  0  0  0  0
  2  1  1  0
  3  1  2  0
  4  2  1  0
  5  1  1  0
  6  2  2  0
  7  5  2  0
  8  3  1  0
  9  3  1  0
 10  8  2  0
 11  9  1  0
 12 15  2  0
 13 11  1  0
 14 11  2  0
 15 14  1  0
 16 13  2  0
 17  7  1  0
 18 12  1  0
 19 17  1  0
  4  7  1  0
  6 10  1  0
 16 12  1  0
M  END

> <chembl_id>
CHEMBL6523

> <chembl_pref_name>
None

$$$$

     RDKit          2D

 19 21  0  0  0  0  0  0  0  0999 V2000
    4.0167   -2.8417    0.0000 C   0  0  0  0  0  0  0  0  0  0  0  0
    4.0250   -3.6667    0.0000 C   0  0  0  0  0  0  0  0  0  0  0  0
    4.8125   -3.9167    0.0000 S   0  0  0  0  0  0  0  0  0  0  0  0
    3.3042   -2.4292    0.0000 C   0  0  0  0  0  0  0  0  0  0  0  0
    4.8042   -2.5792    0.0000 C   0  0  0  0  0  0  0  0  0  0  0  0
    3.3042   -4.0792    0.0000 N   0  0  0  0  0  0  0  0  0  0  0  0
    5.2917   -3.2417    0.0000 C   0  0  0  0  0  0  0  0  0  0  0  0
    2.5917   -2.8417    0.0000 N   0  0  0  0  0  0  0  0  0  0  0  0
    3.3000   -1.6042    0.0000 S   0  0  0  0  0  0  0  0  0  0  0  0
    2.5917   -3.6667    0.0000 C   0  0  0  0  0  0  0  0  0  0  0  0
    2.5875   -1.1917    0.0000 C   0  0  0  0  0  0  0  0  0  0  0  0
    2.5792   -0.3667    0.0000 C   0  0  0  0  0  0  0  0  0  0  0  0
    6.1167   -3.2417    0.0000 C   0  0  0  0  0  0  0  0  0  0  0  0
    3.3000    0.0375    0.0000 C   0  0  0  0  0  0  0  0  0  0  0  0
    1.8667    0.0333    0.0000 C   0  0  0  0  0  0  0  0  0  0  0  0
    6.5292   -2.5250    0.0000 C   0  0  0  0  0  0  0  0  0  0  0  0
    1.8667    0.8583    0.0000 C   0  0  0  0  0  0  0  0  0  0  0  0
    3.2917    0.8625    0.0000 C   0  0  0  0  0  0  0  0  0  0  0  0
    2.5792    1.2750    0.0000 C   0  0  0  0  0  0  0  0  0  0  0  0
  2  1  1  0
  3  2  1  0
  4  1  2  0
  5  1  1  0
  6  2  2  0
  7  5  2  0
  8  4  1  0
  9  4  1  0
 10  8  2  0
 11  9  1  0
 12 11  1  0
 13  7  1  0
 14 12  2  0
 15 12  1  0
 16 13  1  0
 17 15  2  0
 18 14  1  0
 19 17  1  0
  3  7  1  0
 10  6  1  0
 18 19  2  0
M  END

> <chembl_id>
CHEMBL266064

> <chembl_pref_name>
None

$$$$

     RDKit          2D

 41 41  0  0  1  0  0  0  0  0999 V2000
   11.0500   -0.6875    0.0000 N   0  0  0  0  0  0  0  0  0  0  0  0
   10.1417   -1.2000    0.0000 C   0  0  0  0  0  0  0  0  0  0  0  0
    9.2500   -0.6667    0.0000 C   0  0  0  0  0  0  0  0  0  0  0  0
    7.4500   -0.6417    0.0000 C   0  0  0  0  0  0  0  0  0  0  0  0
    8.3375   -1.1750    0.0000 N   0  0  0  0  0  0  0  0  0  0  0  0
   11.1667    0.3375    0.0000 C   0  0  0  0  0  0  0  0  0  0  0  0
    6.5375   -1.1500    0.0000 C   0  0  0  0  0  0  0  0  0  0  0  0
    6.5292   -2.1875    0.0000 C   0  0  0  0  0  0  0  0  0  0  0  0
    2.0417   -0.5667    0.0000 C   0  0  0  0  0  0  0  0  0  0  0  0
    3.8042   -3.7042    0.0000 C   0  0  0  0  0  0  0  0  0  0  0  0
   10.4042    1.0458    0.0000 C   0  0  0  0  0  0  0  0  0  0  0  0
    5.6417   -0.6167    0.0000 N   0  0  0  0  0  0  0  0  0  0  0  0
    0.2417   -0.5417    0.0000 N   0  0  0  0  0  0  0  0  0  0  0  0
    6.8125   -2.7500    0.0000 C   0  0  0  0  0  0  0  0  0  0  0  0
    4.7375   -1.1250    0.0000 C   0  0  0  0  0  0  0  0  0  0  0  0
    2.9292   -1.1042    0.0000 N   0  0  0  0  0  0  0  0  0  0  0  0
   -0.6708   -1.0500    0.0000 C   0  0  0  0  0  0  0  0  0  0  0  0
    1.1292   -1.0750    0.0000 C   0  0  0  0  0  0  0  0  0  0  0  0
    3.8167   -2.6750    0.0000 N   0  0  0  0  0  0  0  0  0  0  0  0
   10.1292   -2.2375    0.0000 O   0  0  0  0  0  0  0  0  0  0  0  0
    7.4625    0.3958    0.0000 O   0  0  0  0  0  0  0  0  0  0  0  0
    2.0625    0.4708    0.0000 O   0  0  0  0  0  0  0  0  0  0  0  0
    9.7292    0.7833    0.0000 O   0  0  0  0  0  0  0  0  0  0  0  0
    6.6417   -3.7125    0.0000 O   0  0  0  0  0  0  0  0  0  0  0  0
    4.7250   -2.1625    0.0000 O   0  0  0  0  0  0  0  0  0  0  0  0
   -0.6833   -2.0917    0.0000 O   0  0  0  0  0  0  0  0  0  0  0  0
    2.8917   -4.2167    0.0000 N   0  0  0  0  0  0  0  0  0  0  0  0
    3.8417   -0.5917    0.0000 C   0  0  0  0  0  0  0  0  0  0  0  0
    4.6917   -4.2417    0.0000 N   0  0  0  0  0  0  0  0  0  0  0  0
   11.9917   -1.1292    0.0000 C   0  0  0  0  0  0  0  0  0  0  0  0
   10.6375    2.0625    0.0000 O   0  0  0  0  0  0  0  0  0  0  0  0
    7.8542   -2.9875    0.0000 O   0  0  0  0  0  0  0  0  0  0  0  0
    9.2625    0.3708    0.0000 C   0  0  0  0  0  0  0  0  0  0  0  0
   -2.4625   -1.0292    0.0000 N   0  0  0  0  0  0  0  0  0  0  0  0
   12.1917    0.5458    0.0000 C   0  0  0  0  0  0  0  0  0  0  0  0
   -1.5625   -0.5167    0.0000 C   0  0  0  0  0  0  0  0  0  0  0  0
    8.4667    1.1583    0.0000 O   0  0  0  0  0  0  0  0  0  0  0  0
   12.7000   -0.3667    0.0000 C   0  0  0  0  0  0  0  0  0  0  0  0
    1.1250   -2.1125    0.0000 C   0  0  0  0  0  0  0  0  0  0  0  0
    2.0000   -3.6875    0.0000 C   0  0  0  0  0  0  0  0  0  0  0  0
    2.0167   -2.6500    0.0000 C   0  0  0  0  0  0  0  0  0  0  0  0
  2  1  1  0
  3  2  1  0
  4  5  1  0
  3  5  1  1
  6  1  1  0
  7  4  1  0
  7  8  1  6
  9 16  1  0
 10 27  2  0
  6 11  1  6
 12  7  1  0
 18 13  1  6
 14  8  1  0
 15 12  1  0
 16 28  1  0
 17 13  1  0
 18  9  1  0
 19 10  1  0
 20  2  2  0
 21  4  2  0
 22  9  2  0
 23 11  2  0
 24 14  2  0
 25 15  2  0
 26 17  2  0
 27 40  1  0
 28 15  1  0
 29 10  1  0
 30  1  1  0
 31 11  1  0
 32 14  1  0
  3 33  1  0
 34 36  1  0
  6 35  1  0
 36 17  1  0
 37 33  1  0
 38 30  1  0
 18 39  1  0
 40 41  1  0
 41 39  1  0
 38 35  1  0
M  END

> <chembl_id>
CHEMBL6602

> <chembl_pref_name>
None

$$$$

     RDKit          2D

 53 54  0  0  1  0  0  0  0  0999 V2000
    0.9375   -1.8917    0.0000 N   0  0  0  0  0  0  0  0  0  0  0  0
    0.2250   -1.4792    0.0000 C   0  0  0  0  0  0  0  0  0  0  0  0
    2.3667   -2.2500    0.0000 C   0  0  0  0  0  0  0  0  0  0  0  0
    5.5042    0.6750    0.0000 C   0  0  0  0  0  0  0  0  0  0  0  0
    4.4625   -0.3000    0.0000 N   0  0  0  0  0  0  0  0  0  0  0  0
    3.6542   -0.4875    0.0000 C   0  0  0  0  0  0  0  0  0  0  0  0
    1.5542   -2.4292    0.0000 C   0  0  0  0  0  0  0  0  0  0  0  0
    4.7042    0.4958    0.0000 C   0  0  0  0  0  0  0  0  0  0  0  0
    2.6042   -1.4625    0.0000 N   0  0  0  0  0  0  0  0  0  0  0  0
    5.7542    1.4708    0.0000 N   0  0  0  0  0  0  0  0  0  0  0  0
    3.4125   -1.2750    0.0000 C   0  0  0  0  0  0  0  0  0  0  0  0
    6.5542    1.6583    0.0000 C   0  0  0  0  0  0  0  0  0  0  0  0
    6.8000    2.4458    0.0000 C   0  0  0  0  0  0  0  0  0  0  0  0
    4.1417    1.0958    0.0000 C   0  0  0  0  0  0  0  0  0  0  0  0
   -1.2083   -1.4792    0.0000 N   0  0  0  0  0  0  0  0  0  0  0  0
    0.2250   -0.6542    0.0000 O   0  0  0  0  0  0  0  0  0  0  0  0
    2.9292   -2.8542    0.0000 O   0  0  0  0  0  0  0  0  0  0  0  0
    6.0667    0.0708    0.0000 O   0  0  0  0  0  0  0  0  0  0  0  0
   -0.4958   -1.8917    0.0000 C   0  0  0  0  0  0  0  0  0  0  0  0
    3.0917    0.1208    0.0000 O   0  0  0  0  0  0  0  0  0  0  0  0
    3.9750   -1.8792    0.0000 C   0  0  0  0  0  0  0  0  0  0  0  0
    6.2375    3.0458    0.0000 O   0  0  0  0  0  0  0  0  0  0  0  0
    7.1167    1.0500    0.0000 C   0  0  0  0  0  0  0  0  0  0  0  0
    0.2292   -2.3167    0.0000 C   0  0  0  0  0  0  0  0  0  0  0  0
    4.3917   -2.5875    0.0000 C   0  0  0  0  0  0  0  0  0  0  0  0
    7.6042    2.6333    0.0000 O   0  0  0  0  0  0  0  0  0  0  0  0
   -1.9333   -1.8917    0.0000 C   0  0  0  0  0  0  0  0  0  0  0  0
    5.2292   -4.0167    0.0000 C   0  0  0  0  0  0  0  0  0  0  0  0
   -3.3625   -1.8917    0.0000 N   0  0  0  0  0  0  0  0  0  0  0  0
    5.2167   -2.5792    0.0000 C   0  0  0  0  0  0  0  0  0  0  0  0
    3.9792   -3.3167    0.0000 C   0  0  0  0  0  0  0  0  0  0  0  0
   -1.2083    1.8333    0.0000 N   0  0  0  0  0  0  0  0  0  0  0  0
    0.9417   -5.2125    0.0000 N   0  0  0  0  0  0  0  0  0  0  0  0
    5.6375   -3.2917    0.0000 C   0  0  0  0  0  0  0  0  0  0  0  0
    4.4042   -4.0292    0.0000 C   0  0  0  0  0  0  0  0  0  0  0  0
    1.2375   -3.2000    0.0000 C   0  0  0  0  0  0  0  0  0  0  0  0
    5.6500   -4.7292    0.0000 O   0  0  0  0  0  0  0  0  0  0  0  0
    0.4125   -3.1250    0.0000 C   0  0  0  0  0  0  0  0  0  0  0  0
   -2.6458   -1.4792    0.0000 C   0  0  0  0  0  0  0  0  0  0  0  0
    7.9292    1.2333    0.0000 C   0  0  0  0  0  0  0  0  0  0  0  0
    3.3375    0.9083    0.0000 C   0  0  0  0  0  0  0  0  0  0  0  0
    4.3792    1.8833    0.0000 C   0  0  0  0  0  0  0  0  0  0  0  0
    3.4375    1.5333    0.0000 C   0  0  0  0  0  0  0  0  0  0  0  0
   -0.4958   -2.7250    0.0000 C   0  0  0  0  0  0  0  0  0  0  0  0
   -1.2083    1.0083    0.0000 C   0  0  0  0  0  0  0  0  0  0  0  0
    0.9417   -4.3792    0.0000 C   0  0  0  0  0  0  0  0  0  0  0  0
   -2.6458   -0.6542    0.0000 C   0  0  0  0  0  0  0  0  0  0  0  0
    0.2250   -3.9667    0.0000 C   0  0  0  0  0  0  0  0  0  0  0  0
   -1.9333    0.5958    0.0000 C   0  0  0  0  0  0  0  0  0  0  0  0
    0.2250   -3.1417    0.0000 C   0  0  0  0  0  0  0  0  0  0  0  0
    8.4917    0.6250    0.0000 C   0  0  0  0  0  0  0  0  0  0  0  0
    8.1667    2.0250    0.0000 C   0  0  0  0  0  0  0  0  0  0  0  0
   -1.9333   -0.2375    0.0000 C   0  0  0  0  0  0  0  0  0  0  0  0
  2  1  1  0
  7  3  1  1
  4  8  1  0
  5  6  1  0
  6 11  1  0
  7  1  1  0
  8  5  1  1
  9  3  1  0
 10  4  1  0
 11  9  1  6
 12 10  1  6
 13 12  1  0
  8 14  1  0
 19 15  1  6
 16  2  2  0
 17  3  2  0
 18  4  2  0
 19  2  1  0
 20  6  2  0
 11 21  1  0
 22 13  2  0
 12 23  1  0
 24  1  1  0
 25 21  1  0
 26 13  1  0
 27 15  1  0
 28 35  2  0
 39 29  1  1
 30 25  1  0
 31 25  2  0
 32 45  1  0
 33 46  1  0
 34 30  2  0
 35 31  1  0
  7 36  1  0
 37 28  1  0
 38 24  1  0
 39 27  1  0
 40 23  1  0
 41 14  1  0
 42 14  1  0
 43 14  1  0
 19 44  1  0
 45 49  1  0
 46 48  1  0
 39 47  1  0
 48 50  1  0
 49 53  1  0
 50 44  1  0
 51 40  1  0
 52 40  1  0
 53 47  1  0
 36 38  1  0
 34 28  1  0
M  END

> <chembl_id>
CHEMBL6508

> <chembl_pref_name>
None

$$$$

     RDKit          2D

 55 57  0  0  1  0  0  0  0  0999 V2000
    1.4417   -1.5292    0.0000 N   0  0  0  0  0  0  0  0  0  0  0  0
    0.6292   -1.3167    0.0000 C   0  0  0  0  0  0  0  0  0  0  0  0
    2.8417   -1.8667    0.0000 C   0  0  0  0  0  0  0  0  0  0  0  0
    5.8792    1.0208    0.0000 C   0  0  0  0  0  0  0  0  0  0  0  0
    5.0750   -1.9750    0.0000 C   0  0  0  0  0  0  0  0  0  0  0  0
    4.8667    0.0583    0.0000 N   0  0  0  0  0  0  0  0  0  0  0  0
    4.0792   -0.1292    0.0000 C   0  0  0  0  0  0  0  0  0  0  0  0
    2.0542   -2.0542    0.0000 C   0  0  0  0  0  0  0  0  0  0  0  0
    5.0917    0.8333    0.0000 C   0  0  0  0  0  0  0  0  0  0  0  0
    3.0667   -1.0917    0.0000 N   0  0  0  0  0  0  0  0  0  0  0  0
    6.1042    1.7958    0.0000 N   0  0  0  0  0  0  0  0  0  0  0  0
    6.3167   -2.3792    0.0000 N   0  0  0  0  0  0  0  0  0  0  0  0
    5.8417   -1.7167    0.0000 C   0  0  0  0  0  0  0  0  0  0  0  0
    3.8542   -0.8917    0.0000 C   0  0  0  0  0  0  0  0  0  0  0  0
    6.9042    1.9875    0.0000 C   0  0  0  0  0  0  0  0  0  0  0  0
    5.0667   -2.7792    0.0000 C   0  0  0  0  0  0  0  0  0  0  0  0
    7.1375    2.7833    0.0000 C   0  0  0  0  0  0  0  0  0  0  0  0
    4.4042   -1.4917    0.0000 C   0  0  0  0  0  0  0  0  0  0  0  0
    5.8417   -3.0250    0.0000 C   0  0  0  0  0  0  0  0  0  0  0  0
    4.5417    1.4208    0.0000 C   0  0  0  0  0  0  0  0  0  0  0  0
   -0.8333   -1.3167    0.0000 N   0  0  0  0  0  0  0  0  0  0  0  0
    0.6292   -0.4792    0.0000 O   0  0  0  0  0  0  0  0  0  0  0  0
    3.3917   -2.4542    0.0000 O   0  0  0  0  0  0  0  0  0  0  0  0
    6.4292    0.4333    0.0000 O   0  0  0  0  0  0  0  0  0  0  0  0
   -0.1083   -1.7417    0.0000 C   0  0  0  0  0  0  0  0  0  0  0  0
    3.5292    0.4583    0.0000 O   0  0  0  0  0  0  0  0  0  0  0  0
    6.5667    3.3833    0.0000 O   0  0  0  0  0  0  0  0  0  0  0  0
    7.4792    1.3958    0.0000 C   0  0  0  0  0  0  0  0  0  0  0  0
    0.7542   -1.9542    0.0000 C   0  0  0  0  0  0  0  0  0  0  0  0
    7.9417    2.9833    0.0000 O   0  0  0  0  0  0  0  0  0  0  0  0
   -1.5583   -1.7417    0.0000 C   0  0  0  0  0  0  0  0  0  0  0  0
   -3.0208   -1.7417    0.0000 N   0  0  0  0  0  0  0  0  0  0  0  0
    1.3542   -5.1042    0.0000 N   0  0  0  0  0  0  0  0  0  0  0  0
   -0.8333    2.0458    0.0000 N   0  0  0  0  0  0  0  0  0  0  0  0
    1.7417   -2.8042    0.0000 C   0  0  0  0  0  0  0  0  0  0  0  0
    0.9417   -2.7417    0.0000 C   0  0  0  0  0  0  0  0  0  0  0  0
    4.4667   -3.3167    0.0000 C   0  0  0  0  0  0  0  0  0  0  0  0
   -2.2833   -1.3167    0.0000 C   0  0  0  0  0  0  0  0  0  0  0  0
    8.2792    1.5875    0.0000 C   0  0  0  0  0  0  0  0  0  0  0  0
    3.7542    1.2333    0.0000 C   0  0  0  0  0  0  0  0  0  0  0  0
    4.7750    2.2083    0.0000 C   0  0  0  0  0  0  0  0  0  0  0  0
    3.9542    2.0083    0.0000 C   0  0  0  0  0  0  0  0  0  0  0  0
    6.0042   -3.8167    0.0000 C   0  0  0  0  0  0  0  0  0  0  0  0
   -0.1083   -2.5792    0.0000 C   0  0  0  0  0  0  0  0  0  0  0  0
   -0.8333    1.2083    0.0000 C   0  0  0  0  0  0  0  0  0  0  0  0
    1.3542   -4.2667    0.0000 C   0  0  0  0  0  0  0  0  0  0  0  0
   -2.2833   -0.4792    0.0000 C   0  0  0  0  0  0  0  0  0  0  0  0
   -1.5583    0.7833    0.0000 C   0  0  0  0  0  0  0  0  0  0  0  0
    0.6292   -3.8542    0.0000 C   0  0  0  0  0  0  0  0  0  0  0  0
    0.6292   -3.0042    0.0000 C   0  0  0  0  0  0  0  0  0  0  0  0
    8.5125    2.3833    0.0000 C   0  0  0  0  0  0  0  0  0  0  0  0
    8.8500    0.9958    0.0000 C   0  0  0  0  0  0  0  0  0  0  0  0
   -1.5583   -0.0542    0.0000 C   0  0  0  0  0  0  0  0  0  0  0  0
    4.6375   -4.1042    0.0000 C   0  0  0  0  0  0  0  0  0  0  0  0
    5.4042   -4.3542    0.0000 C   0  0  0  0  0  0  0  0  0  0  0  0
  2  1  1  0
  8  3  1  1
  4  9  1  0
  5 18  1  0
  6  7  1  0
  7 14  1  0
  8  1  1  0
  9  6  1  1
 10  3  1  0
 11  4  1  0
 12 13  1  0
 13  5  2  0
 14 10  1  6
 15 11  1  6
 16  5  1  0
 17 15  1  0
 14 18  1  0
 19 16  2  0
  9 20  1  0
 25 21  1  6
 22  2  2  0
 23  3  2  0
 24  4  2  0
 25  2  1  0
 26  7  2  0
 27 17  2  0
 15 28  1  0
 29  1  1  0
 30 17  1  0
 31 21  1  0
 38 32  1  1
 33 46  1  0
 34 45  1  0
  8 35  1  0
 36 29  1  0
 37 16  1  0
 38 31  1  0
 39 28  1  0
 40 20  1  0
 41 20  1  0
 42 20  1  0
 43 19  1  0
 25 44  1  0
 45 48  1  0
 46 49  1  0
 38 47  1  0
 48 53  1  0
 49 50  1  0
 50 44  1  0
 51 39  1  0
 52 39  1  0
 53 47  1  0
 54 37  2  0
 55 54  1  0
 35 36  1  0
 12 19  1  0
 43 55  2  0
M  END

> <chembl_id>
CHEMBL269601

> <chembl_pref_name>
None

$$$$

     RDKit          2D

 57 59  0  0  1  0  0  0  0  0999 V2000
    8.1750   -5.3417    0.0000 N   0  0  0  0  0  0  0  0  0  0  0  0
    7.4625   -4.9292    0.0000 C   0  0  0  0  0  0  0  0  0  0  0  0
    9.5917   -5.2917    0.0000 C   0  0  0  0  0  0  0  0  0  0  0  0
   11.7292   -1.7542    0.0000 C   0  0  0  0  0  0  0  0  0  0  0  0
   11.2000   -5.3167    0.0000 C   0  0  0  0  0  0  0  0  0  0  0  0
   11.0167   -2.9375    0.0000 N   0  0  0  0  0  0  0  0  0  0  0  0
   10.3167   -3.3167    0.0000 C   0  0  0  0  0  0  0  0  0  0  0  0
    8.8917   -5.6792    0.0000 C   0  0  0  0  0  0  0  0  0  0  0  0
   11.0292   -2.1417    0.0000 C   0  0  0  0  0  0  0  0  0  0  0  0
    9.6125   -4.5000    0.0000 N   0  0  0  0  0  0  0  0  0  0  0  0
   11.7417   -0.9625    0.0000 N   0  0  0  0  0  0  0  0  0  0  0  0
   11.0000   -6.4667    0.0000 N   0  0  0  0  0  0  0  0  0  0  0  0
   10.6417   -5.7792    0.0000 C   0  0  0  0  0  0  0  0  0  0  0  0
   10.3042   -4.1167    0.0000 C   0  0  0  0  0  0  0  0  0  0  0  0
    5.8125   -1.6417    0.0000 C   0  0  0  0  0  0  0  0  0  0  0  0
   12.4417   -0.5792    0.0000 C   0  0  0  0  0  0  0  0  0  0  0  0
   11.8792   -5.7167    0.0000 C   0  0  0  0  0  0  0  0  0  0  0  0
   12.4542    0.2208    0.0000 C   0  0  0  0  0  0  0  0  0  0  0  0
   10.9875   -4.5250    0.0000 C   0  0  0  0  0  0  0  0  0  0  0  0
   11.7542   -6.4292    0.0000 C   0  0  0  0  0  0  0  0  0  0  0  0
   10.3542   -1.7292    0.0000 C   0  0  0  0  0  0  0  0  0  0  0  0
    5.0167   -1.4292    0.0000 N   0  0  0  0  0  0  0  0  0  0  0  0
    6.0292   -4.9292    0.0000 N   0  0  0  0  0  0  0  0  0  0  0  0
    7.4625   -4.1000    0.0000 O   0  0  0  0  0  0  0  0  0  0  0  0
   10.2667   -5.7042    0.0000 O   0  0  0  0  0  0  0  0  0  0  0  0
   12.4042   -2.1667    0.0000 O   0  0  0  0  0  0  0  0  0  0  0  0
    6.7417   -5.3417    0.0000 C   0  0  0  0  0  0  0  0  0  0  0  0
    9.6417   -2.9042    0.0000 O   0  0  0  0  0  0  0  0  0  0  0  0
   11.7792    0.6250    0.0000 O   0  0  0  0  0  0  0  0  0  0  0  0
   13.1250   -0.9875    0.0000 C   0  0  0  0  0  0  0  0  0  0  0  0
    6.0292   -2.4417    0.0000 N   0  0  0  0  0  0  0  0  0  0  0  0
    6.3917   -1.0542    0.0000 N   0  0  0  0  0  0  0  0  0  0  0  0
    7.6292   -5.9167    0.0000 C   0  0  0  0  0  0  0  0  0  0  0  0
   13.1542    0.5958    0.0000 O   0  0  0  0  0  0  0  0  0  0  0  0
    5.3042   -5.3417    0.0000 C   0  0  0  0  0  0  0  0  0  0  0  0
    3.8792   -5.3417    0.0000 N   0  0  0  0  0  0  0  0  0  0  0  0
    8.1792   -8.6542    0.0000 N   0  0  0  0  0  0  0  0  0  0  0  0
    8.8000   -6.4667    0.0000 C   0  0  0  0  0  0  0  0  0  0  0  0
    8.0167   -6.6167    0.0000 C   0  0  0  0  0  0  0  0  0  0  0  0
   12.6042   -5.5292    0.0000 C   0  0  0  0  0  0  0  0  0  0  0  0
    4.5917   -4.9292    0.0000 C   0  0  0  0  0  0  0  0  0  0  0  0
   13.8167   -0.6042    0.0000 C   0  0  0  0  0  0  0  0  0  0  0  0
   10.4667   -0.7167    0.0000 C   0  0  0  0  0  0  0  0  0  0  0  0
    9.3792   -2.2250    0.0000 C   0  0  0  0  0  0  0  0  0  0  0  0
    9.3167   -0.8250    0.0000 C   0  0  0  0  0  0  0  0  0  0  0  0
   12.3542   -6.9542    0.0000 C   0  0  0  0  0  0  0  0  0  0  0  0
    5.3042   -2.8542    0.0000 C   0  0  0  0  0  0  0  0  0  0  0  0
    6.7417   -6.1667    0.0000 C   0  0  0  0  0  0  0  0  0  0  0  0
    8.1792   -7.8292    0.0000 C   0  0  0  0  0  0  0  0  0  0  0  0
    4.5917   -4.1000    0.0000 C   0  0  0  0  0  0  0  0  0  0  0  0
    5.3042   -3.6792    0.0000 C   0  0  0  0  0  0  0  0  0  0  0  0
    7.4625   -7.4167    0.0000 C   0  0  0  0  0  0  0  0  0  0  0  0
    7.4625   -6.5875    0.0000 C   0  0  0  0  0  0  0  0  0  0  0  0
   14.5042   -1.0167    0.0000 C   0  0  0  0  0  0  0  0  0  0  0  0
   13.8542    0.1708    0.0000 C   0  0  0  0  0  0  0  0  0  0  0  0
   13.2000   -6.0417    0.0000 C   0  0  0  0  0  0  0  0  0  0  0  0
   13.0792   -6.7625    0.0000 C   0  0  0  0  0  0  0  0  0  0  0  0
  2  1  1  0
  8  3  1  1
  4  9  1  0
  5 19  1  0
  6  7  1  0
  7 14  1  0
  8  1  1  0
  9  6  1  1
 10  3  1  0
 11  4  1  0
 12 13  1  0
 13  5  2  0
 14 10  1  6
 15 31  2  0
 16 11  1  6
 17  5  1  0
 18 16  1  0
 14 19  1  0
 20 17  2  0
  9 21  1  0
 22 15  1  0
 27 23  1  6
 24  2  2  0
 25  3  2  0
 26  4  2  0
 27  2  1  0
 28  7  2  0
 29 18  2  0
 16 30  1  0
 31 47  1  0
 32 15  1  0
 33  1  1  0
 34 18  1  0
 35 23  1  0
 41 36  1  1
 37 49  1  0
  8 38  1  0
 39 33  1  0
 40 17  1  0
 41 35  1  0
 42 30  1  0
 43 21  1  0
 44 21  1  0
 45 21  1  0
 46 20  1  0
 47 51  1  0
 27 48  1  0
 49 52  1  0
 41 50  1  0
 51 50  1  0
 52 53  1  0
 53 48  1  0
 54 42  1  0
 55 42  1  0
 56 40  2  0
 57 56  1  0
 39 38  1  0
 20 12  1  0
 46 57  2  0
M  END

> <chembl_id>
CHEMBL267459

> <chembl_pref_name>
None

$$$$

     RDKit          2D

 15 17  0  0  0  0  0  0  0  0999 V2000
   -0.7208    0.4875    0.0000 N   0  0  0  0  0  0  0  0  0  0  0  0
   -0.2583    1.1583    0.0000 C   0  0  0  0  0  0  0  0  0  0  0  0
   -1.5125    0.7208    0.0000 C   0  0  0  0  0  0  0  0  0  0  0  0
   -0.7458    1.8208    0.0000 C   0  0  0  0  0  0  0  0  0  0  0  0
   -1.5250    1.5458    0.0000 C   0  0  0  0  0  0  0  0  0  0  0  0
    0.9042    2.0208    0.0000 N   0  0  0  0  0  0  0  0  0  0  0  0
    0.5667    1.2583    0.0000 C   0  0  0  0  0  0  0  0  0  0  0  0
   -2.2125    0.2958    0.0000 C   0  0  0  0  0  0  0  0  0  0  0  0
   -0.4250    2.5833    0.0000 C   0  0  0  0  0  0  0  0  0  0  0  0
   -2.2500    1.9375    0.0000 C   0  0  0  0  0  0  0  0  0  0  0  0
   -2.1875   -0.5292    0.0000 O   0  0  0  0  0  0  0  0  0  0  0  0
    0.3917    2.6833    0.0000 C   0  0  0  0  0  0  0  0  0  0  0  0
   -2.9583    1.5083    0.0000 C   0  0  0  0  0  0  0  0  0  0  0  0
   -2.9458    0.6958    0.0000 C   0  0  0  0  0  0  0  0  0  0  0  0
   -1.4708   -0.9292    0.0000 C   0  0  0  0  0  0  0  0  0  0  0  0
  2  1  1  0
  3  1  1  0
  4  2  2  0
  5  3  1  0
  6  7  2  0
  7  2  1  0
  8  3  2  0
  9  4  1  0
 10  5  2  0
 11  8  1  0
 12  6  1  0
 13 14  2  0
 14  8  1  0
 15 11  1  0
  5  4  1  0
 13 10  1  0
  9 12  1  0
M  END

> <chembl_id>
CHEMBL269367

> <chembl_pref_name>
None

$$$$

     RDKit          2D

 15 17  0  0  0  0  0  0  0  0999 V2000
    2.9667   -0.4750    0.0000 N   0  0  0  0  0  0  0  0  0  0  0  0
    3.4292    0.1958    0.0000 C   0  0  0  0  0  0  0  0  0  0  0  0
    2.1667   -0.2417    0.0000 C   0  0  0  0  0  0  0  0  0  0  0  0
    2.9375    0.8583    0.0000 C   0  0  0  0  0  0  0  0  0  0  0  0
    2.1542    0.5833    0.0000 C   0  0  0  0  0  0  0  0  0  0  0  0
    4.5875    1.0500    0.0000 N   0  0  0  0  0  0  0  0  0  0  0  0
    1.4667   -0.6667    0.0000 C   0  0  0  0  0  0  0  0  0  0  0  0
    1.4292    0.9750    0.0000 C   0  0  0  0  0  0  0  0  0  0  0  0
    4.2542    0.2958    0.0000 C   0  0  0  0  0  0  0  0  0  0  0  0
    0.7417   -0.2667    0.0000 C   0  0  0  0  0  0  0  0  0  0  0  0
    0.7292    0.5458    0.0000 C   0  0  0  0  0  0  0  0  0  0  0  0
    3.2542    1.6208    0.0000 C   0  0  0  0  0  0  0  0  0  0  0  0
    4.0750    1.7208    0.0000 C   0  0  0  0  0  0  0  0  0  0  0  0
    0.0375   -0.6917    0.0000 O   0  0  0  0  0  0  0  0  0  0  0  0
    0.0542   -1.5167    0.0000 C   0  0  0  0  0  0  0  0  0  0  0  0
  2  1  1  0
  3  1  1  0
  4  2  2  0
  5  3  1  0
  6  9  2  0
  7  3  2  0
  8  5  2  0
  9  2  1  0
 10  7  1  0
 11 10  2  0
 12  4  1  0
 13  6  1  0
 14 10  1  0
 15 14  1  0
  5  4  1  0
 11  8  1  0
 12 13  1  0
M  END

> <chembl_id>
CHEMBL6409

> <chembl_pref_name>
CGS-19281A

$$$$

     RDKit          2D

 15 17  0  0  0  0  0  0  0  0999 V2000
    5.9667    0.3333    0.0000 N   0  0  0  0  0  0  0  0  0  0  0  0
    6.4292    1.0000    0.0000 C   0  0  0  0  0  0  0  0  0  0  0  0
    5.9417    1.6625    0.0000 C   0  0  0  0  0  0  0  0  0  0  0  0
    5.1625    1.3958    0.0000 C   0  0  0  0  0  0  0  0  0  0  0  0
    5.1750    0.5708    0.0000 C   0  0  0  0  0  0  0  0  0  0  0  0
    4.4375    1.7833    0.0000 C   0  0  0  0  0  0  0  0  0  0  0  0
    7.5917    1.8583    0.0000 N   0  0  0  0  0  0  0  0  0  0  0  0
    4.4750    0.1375    0.0000 C   0  0  0  0  0  0  0  0  0  0  0  0
    7.2542    1.1000    0.0000 C   0  0  0  0  0  0  0  0  0  0  0  0
    3.7292    1.3583    0.0000 C   0  0  0  0  0  0  0  0  0  0  0  0
    6.2625    2.4250    0.0000 C   0  0  0  0  0  0  0  0  0  0  0  0
    3.7417    0.5375    0.0000 C   0  0  0  0  0  0  0  0  0  0  0  0
    3.0125    1.7583    0.0000 O   0  0  0  0  0  0  0  0  0  0  0  0
    7.0792    2.5333    0.0000 C   0  0  0  0  0  0  0  0  0  0  0  0
    2.3042    1.3333    0.0000 C   0  0  0  0  0  0  0  0  0  0  0  0
  2  1  1  0
  3  2  2  0
  4  5  1  0
  5  1  1  0
  6  4  2  0
  7  9  1  0
  8  5  2  0
  9  2  1  0
 10 12  2  0
 11  3  1  0
 12  8  1  0
 13 10  1  0
 14  7  1  0
 15 13  1  0
  4  3  1  0
 10  6  1  0
 11 14  1  0
M  END

> <chembl_id>
CHEMBL266084

> <chembl_pref_name>
None

$$$$

     RDKit          2D

 30 32  0  0  0  0  0  0  0  0999 V2000
    0.8417   -2.9250    0.0000 C   0  0  0  0  0  0  0  0  0  0  0  0
    1.5500   -3.3375    0.0000 C   0  0  0  0  0  0  0  0  0  0  0  0
    0.1292   -3.3250    0.0000 N   0  0  0  0  0  0  0  0  0  0  0  0
    0.8292   -4.5625    0.0000 N   0  0  0  0  0  0  0  0  0  0  0  0
    1.5417   -4.1542    0.0000 C   0  0  0  0  0  0  0  0  0  0  0  0
    0.1250   -4.1500    0.0000 C   0  0  0  0  0  0  0  0  0  0  0  0
    7.2542   -1.6625    0.0000 C   0  0  0  0  0  0  0  0  0  0  0  0
    4.4042   -3.3167    0.0000 N   0  0  0  0  0  0  0  0  0  0  0  0
    5.1000   -4.5875    0.0000 C   0  0  0  0  0  0  0  0  0  0  0  0
    5.8042   -5.0292    0.0000 C   0  0  0  0  0  0  0  0  0  0  0  0
    7.9667   -2.0667    0.0000 N   0  0  0  0  0  0  0  0  0  0  0  0
    2.2542   -2.9125    0.0000 C   0  0  0  0  0  0  0  0  0  0  0  0
    6.5417   -2.0750    0.0000 C   0  0  0  0  0  0  0  0  0  0  0  0
    9.3917   -2.0625    0.0000 C   0  0  0  0  0  0  0  0  0  0  0  0
    5.1167   -2.9042    0.0000 C   0  0  0  0  0  0  0  0  0  0  0  0
    0.8500   -2.1000    0.0000 O   0  0  0  0  0  0  0  0  0  0  0  0
    3.6875   -2.9125    0.0000 C   0  0  0  0  0  0  0  0  0  0  0  0
    2.9750   -3.3250    0.0000 C   0  0  0  0  0  0  0  0  0  0  0  0
    7.2500   -0.8375    0.0000 O   0  0  0  0  0  0  0  0  0  0  0  0
    2.2542   -4.5667    0.0000 C   0  0  0  0  0  0  0  0  0  0  0  0
    9.4000   -2.8875    0.0000 O   0  0  0  0  0  0  0  0  0  0  0  0
    5.8167   -1.6667    0.0000 C   0  0  0  0  0  0  0  0  0  0  0  0
    6.5417   -2.9000    0.0000 C   0  0  0  0  0  0  0  0  0  0  0  0
    5.1042   -2.0875    0.0000 C   0  0  0  0  0  0  0  0  0  0  0  0
    5.8292   -3.3167    0.0000 C   0  0  0  0  0  0  0  0  0  0  0  0
    8.6792   -1.6542    0.0000 C   0  0  0  0  0  0  0  0  0  0  0  0
    4.4042   -4.1417    0.0000 C   0  0  0  0  0  0  0  0  0  0  0  0
    2.9750   -4.1542    0.0000 C   0  0  0  0  0  0  0  0  0  0  0  0
   10.1042   -1.6500    0.0000 O   0  0  0  0  0  0  0  0  0  0  0  0
   -0.5958   -4.5542    0.0000 C   0  0  0  0  0  0  0  0  0  0  0  0
  2  1  1  0
  3  1  2  0
  4  6  2  0
  5  2  2  0
  6  3  1  0
  7 13  1  0
  8 17  1  0
  9 27  1  0
 10  9  3  0
 11  7  1  0
 12  2  1  0
 13 23  2  0
 14 26  1  0
 15  8  1  0
 16  1  1  0
 17 18  1  0
 18 12  2  0
 19  7  2  0
 20  5  1  0
 21 14  2  0
 22 24  2  0
 23 25  1  0
 24 15  1  0
 25 15  2  0
 26 11  1  0
 27  8  1  0
 28 18  1  0
 29 14  1  0
 30  6  1  0
  4  5  1  0
 28 20  2  0
 13 22  1  0
M  END

> <chembl_id>
CHEMBL6560

> <chembl_pref_name>
None

$$$$

     RDKit          2D

 35 38  0  0  0  0  0  0  0  0999 V2000
    0.8417   -3.9542    0.0000 C   0  0  0  0  0  0  0  0  0  0  0  0
    1.5500   -4.3667    0.0000 C   0  0  0  0  0  0  0  0  0  0  0  0
    0.1375   -4.3542    0.0000 N   0  0  0  0  0  0  0  0  0  0  0  0
    0.8375   -5.5917    0.0000 N   0  0  0  0  0  0  0  0  0  0  0  0
    1.5500   -5.1792    0.0000 C   0  0  0  0  0  0  0  0  0  0  0  0
    0.1250   -5.1792    0.0000 C   0  0  0  0  0  0  0  0  0  0  0  0
    7.2542   -2.6917    0.0000 C   0  0  0  0  0  0  0  0  0  0  0  0
   10.8167    0.2000    0.0000 N   0  0  0  0  0  0  0  0  0  0  0  0
    4.4042   -4.3417    0.0000 N   0  0  0  0  0  0  0  0  0  0  0  0
    5.0917   -5.6167    0.0000 C   0  0  0  0  0  0  0  0  0  0  0  0
    5.7913   -6.0746    0.0000 C   0  0  0  0  0  0  0  0  0  0  0  0
    7.9667   -3.0917    0.0000 N   0  0  0  0  0  0  0  0  0  0  0  0
    2.2542   -3.9417    0.0000 C   0  0  0  0  0  0  0  0  0  0  0  0
   10.1042   -0.2125    0.0000 C   0  0  0  0  0  0  0  0  0  0  0  0
    6.5417   -3.1042    0.0000 C   0  0  0  0  0  0  0  0  0  0  0  0
    5.1167   -3.9292    0.0000 C   0  0  0  0  0  0  0  0  0  0  0  0
    0.8500   -3.1292    0.0000 O   0  0  0  0  0  0  0  0  0  0  0  0
    3.6792   -3.9417    0.0000 C   0  0  0  0  0  0  0  0  0  0  0  0
    2.9667   -4.3542    0.0000 C   0  0  0  0  0  0  0  0  0  0  0  0
    7.2417   -1.8667    0.0000 O   0  0  0  0  0  0  0  0  0  0  0  0
    2.2542   -5.5917    0.0000 C   0  0  0  0  0  0  0  0  0  0  0  0
    5.8167   -2.6917    0.0000 C   0  0  0  0  0  0  0  0  0  0  0  0
    6.5417   -3.9292    0.0000 C   0  0  0  0  0  0  0  0  0  0  0  0
    5.1042   -3.1167    0.0000 C   0  0  0  0  0  0  0  0  0  0  0  0
    5.8292   -4.3417    0.0000 C   0  0  0  0  0  0  0  0  0  0  0  0
    9.3792   -0.6167    0.0000 C   0  0  0  0  0  0  0  0  0  0  0  0
    8.6792   -2.6792    0.0000 C   0  0  0  0  0  0  0  0  0  0  0  0
    4.4042   -5.1667    0.0000 C   0  0  0  0  0  0  0  0  0  0  0  0
    2.9667   -5.1792    0.0000 C   0  0  0  0  0  0  0  0  0  0  0  0
    9.3917   -1.4417    0.0000 C   0  0  0  0  0  0  0  0  0  0  0  0
    8.6667   -1.8542    0.0000 C   0  0  0  0  0  0  0  0  0  0  0  0
   -0.5875   -5.5792    0.0000 C   0  0  0  0  0  0  0  0  0  0  0  0
    7.9542   -0.6292    0.0000 C   0  0  0  0  0  0  0  0  0  0  0  0
    8.6667   -0.2125    0.0000 C   0  0  0  0  0  0  0  0  0  0  0  0
    7.9542   -1.4417    0.0000 C   0  0  0  0  0  0  0  0  0  0  0  0
  2  1  1  0
  3  1  2  0
  4  6  2  0
  5  2  2  0
  6  3  1  0
  7 15  1  0
  8 14  3  0
  9 18  1  0
 10 28  1  0
 11 10  3  0
 12  7  1  0
 13  2  1  0
 14 26  1  0
 15 23  2  0
 16  9  1  0
 17  1  1  0
 18 19  1  0
 19 13  2  0
 20  7  2  0
 21  5  1  0
 22 24  2  0
 23 25  1  0
 24 16  1  0
 25 16  2  0
 26 30  1  0
 27 12  1  0
 28  9  1  0
 29 19  1  0
 30 31  2  0
 31 27  1  0
 32  6  1  0
 33 35  2  0
 34 33  1  0
 35 31  1  0
  4  5  1  0
 29 21  2  0
 15 22  1  0
 34 26  2  0
M  END

> <chembl_id>
CHEMBL268100

> <chembl_pref_name>
None

$$$$

     RDKit          2D

 15 17  0  0  0  0  0  0  0  0999 V2000
    4.8917   -2.0292    0.0000 C   0  0  0  0  0  0  0  0  0  0  0  0
    3.4542   -2.0250    0.0000 C   0  0  0  0  0  0  0  0  0  0  0  0
    4.8917   -2.8542    0.0000 C   0  0  0  0  0  0  0  0  0  0  0  0
    4.1667   -3.2667    0.0000 N   0  0  0  0  0  0  0  0  0  0  0  0
    3.4542   -2.8500    0.0000 C   0  0  0  0  0  0  0  0  0  0  0  0
    5.7167   -2.0292    0.0000 S   0  0  0  0  0  0  0  0  0  0  0  0
    4.6417   -1.2417    0.0000 S   0  0  0  0  0  0  0  0  0  0  0  0
    2.7417   -1.6125    0.0000 C   0  0  0  0  0  0  0  0  0  0  0  0
    5.6042   -3.2667    0.0000 O   0  0  0  0  0  0  0  0  0  0  0  0
    2.7417   -3.2667    0.0000 C   0  0  0  0  0  0  0  0  0  0  0  0
    2.0292   -2.0250    0.0000 C   0  0  0  0  0  0  0  0  0  0  0  0
    2.0292   -2.8542    0.0000 C   0  0  0  0  0  0  0  0  0  0  0  0
    1.3167   -1.6167    0.0000 Br  0  0  0  0  0  0  0  0  0  0  0  0
    5.3042   -0.7542    0.0000 C   0  0  0  0  0  0  0  0  0  0  0  0
    5.9750   -1.2417    0.0000 C   0  0  0  0  0  0  0  0  0  0  0  0
  2  1  1  0
  3  1  1  0
  4  3  1  0
  5  2  1  0
  6  1  1  0
  7  1  1  0
  8  2  2  0
  9  3  2  0
 10  5  2  0
 11  8  1  0
 12 11  2  0
 13 11  1  0
 14  7  1  0
 15  6  1  0
 14 15  1  0
  4  5  1  0
 12 10  1  0
M  END

> <chembl_id>
CHEMBL6548

> <chembl_pref_name>
None

$$$$

     RDKit          2D

 15 17  0  0  0  0  0  0  0  0999 V2000
    4.8917   -2.0292    0.0000 C   0  0  0  0  0  0  0  0  0  0  0  0
    3.4542   -2.0250    0.0000 C   0  0  0  0  0  0  0  0  0  0  0  0
    4.8917   -2.8542    0.0000 C   0  0  0  0  0  0  0  0  0  0  0  0
    4.1667   -3.2667    0.0000 N   0  0  0  0  0  0  0  0  0  0  0  0
    3.4542   -2.8500    0.0000 C   0  0  0  0  0  0  0  0  0  0  0  0
    4.6417   -1.2417    0.0000 S   0  0  0  0  0  0  0  0  0  0  0  0
    5.7167   -2.0292    0.0000 O   0  0  0  0  0  0  0  0  0  0  0  0
    2.7417   -1.6125    0.0000 C   0  0  0  0  0  0  0  0  0  0  0  0
    5.6042   -3.2667    0.0000 O   0  0  0  0  0  0  0  0  0  0  0  0
    2.7417   -3.2667    0.0000 C   0  0  0  0  0  0  0  0  0  0  0  0
    2.0292   -2.0250    0.0000 C   0  0  0  0  0  0  0  0  0  0  0  0
    2.0292   -2.8542    0.0000 C   0  0  0  0  0  0  0  0  0  0  0  0
    1.3167   -1.6167    0.0000 Cl  0  0  0  0  0  0  0  0  0  0  0  0
    5.3042   -0.7542    0.0000 C   0  0  0  0  0  0  0  0  0  0  0  0
    5.9750   -1.2417    0.0000 C   0  0  0  0  0  0  0  0  0  0  0  0
  2  1  1  0
  3  1  1  0
  4  3  1  0
  5  2  1  0
  6  1  1  0
  7  1  1  0
  8  2  2  0
  9  3  2  0
 10  5  2  0
 11  8  1  0
 12 11  2  0
 13 11  1  0
 14  6  1  0
 15  7  1  0
 14 15  1  0
  4  5  1  0
 12 10  1  0
M  END

> <chembl_id>
CHEMBL6561

> <chembl_pref_name>
None

$$$$

     RDKit          2D

 38 41  0  0  0  0  0  0  0  0999 V2000
    1.4167   -4.5750    0.0000 C   0  0  0  0  0  0  0  0  0  0  0  0
    0.7042   -4.1625    0.0000 C   0  0  0  0  0  0  0  0  0  0  0  0
    1.4125   -5.3917    0.0000 C   0  0  0  0  0  0  0  0  0  0  0  0
   -0.0083   -4.5625    0.0000 N   0  0  0  0  0  0  0  0  0  0  0  0
    0.7000   -5.8000    0.0000 N   0  0  0  0  0  0  0  0  0  0  0  0
    9.9542   -0.4250    0.0000 N   0  0  0  0  0  0  0  0  0  0  0  0
    6.4042   -3.3125    0.0000 C   0  0  0  0  0  0  0  0  0  0  0  0
   -0.0083   -5.3875    0.0000 C   0  0  0  0  0  0  0  0  0  0  0  0
    2.1250   -4.1500    0.0000 C   0  0  0  0  0  0  0  0  0  0  0  0
    7.1167   -2.9000    0.0000 C   0  0  0  0  0  0  0  0  0  0  0  0
    5.6875   -2.9042    0.0000 C   0  0  0  0  0  0  0  0  0  0  0  0
    2.8417   -4.5625    0.0000 C   0  0  0  0  0  0  0  0  0  0  0  0
    4.9750   -3.3250    0.0000 C   0  0  0  0  0  0  0  0  0  0  0  0
    4.9792   -4.1417    0.0000 C   0  0  0  0  0  0  0  0  0  0  0  0
    4.2667   -4.5542    0.0000 N   0  0  0  0  0  0  0  0  0  0  0  0
    9.2417   -0.8375    0.0000 C   0  0  0  0  0  0  0  0  0  0  0  0
    2.1250   -5.8000    0.0000 C   0  0  0  0  0  0  0  0  0  0  0  0
    3.5542   -4.1500    0.0000 C   0  0  0  0  0  0  0  0  0  0  0  0
    6.4042   -4.1292    0.0000 C   0  0  0  0  0  0  0  0  0  0  0  0
    2.8417   -5.3917    0.0000 C   0  0  0  0  0  0  0  0  0  0  0  0
    4.9625   -5.8250    0.0000 C   0  0  0  0  0  0  0  0  0  0  0  0
    7.8292   -3.3042    0.0000 N   0  0  0  0  0  0  0  0  0  0  0  0
    5.6667   -6.2750    0.0000 C   0  0  0  0  0  0  0  0  0  0  0  0
   10.6750   -0.8250    0.0000 O   0  0  0  0  0  0  0  0  0  0  0  0
    9.9500    0.4125    0.0000 O   0  0  0  0  0  0  0  0  0  0  0  0
    0.7167   -3.3375    0.0000 O   0  0  0  0  0  0  0  0  0  0  0  0
    5.6917   -4.5542    0.0000 C   0  0  0  0  0  0  0  0  0  0  0  0
    7.1167   -2.0750    0.0000 O   0  0  0  0  0  0  0  0  0  0  0  0
    9.2500   -1.6625    0.0000 C   0  0  0  0  0  0  0  0  0  0  0  0
    5.6792   -2.0792    0.0000 F   0  0  0  0  0  0  0  0  0  0  0  0
    8.5417   -2.8917    0.0000 C   0  0  0  0  0  0  0  0  0  0  0  0
    4.2667   -5.3875    0.0000 C   0  0  0  0  0  0  0  0  0  0  0  0
    8.5417   -2.0750    0.0000 C   0  0  0  0  0  0  0  0  0  0  0  0
   -0.7250   -5.7917    0.0000 C   0  0  0  0  0  0  0  0  0  0  0  0
    8.5292   -0.4375    0.0000 C   0  0  0  0  0  0  0  0  0  0  0  0
    7.8167   -0.8500    0.0000 C   0  0  0  0  0  0  0  0  0  0  0  0
    3.5542   -5.8000    0.0000 C   0  0  0  0  0  0  0  0  0  0  0  0
    7.8292   -1.6750    0.0000 C   0  0  0  0  0  0  0  0  0  0  0  0
  2  1  1  0
  3  1  2  0
  4  2  2  0
  5  3  1  0
  6 16  1  0
  7 19  2  0
  8  5  2  0
  9  1  1  0
 10  7  1  0
 11 13  2  0
 12  9  2  0
 13 14  1  0
 14 15  1  0
 15 18  1  0
 16 29  1  0
 17  3  1  0
 18 12  1  0
 19 27  1  0
 20 12  1  0
 21 32  1  0
 22 10  1  0
 23 21  3  0
 24  6  1  0
 25  6  2  0
 26  2  1  0
 27 14  2  0
 28 10  2  0
 29 33  2  0
 30 11  1  0
 31 22  1  0
 32 15  1  0
 33 31  1  0
 34  8  1  0
 35 36  1  0
 36 38  2  0
 37 20  1  0
 38 33  1  0
 20 17  2  0
  8  4  1  0
 11  7  1  0
 35 16  2  0
M  CHG  2   6   1  24  -1
M  END

> <chembl_id>
CHEMBL268453

> <chembl_pref_name>
None

$$$$

     RDKit          2D

 20 20  0  0  0  0  0  0  0  0999 V2000
   -1.7375   -2.5292    0.0000 Na  0  0  0  0  0 15  0  0  0  0  0  0
    0.5500   -0.2625    0.0000 S   0  0  0  0  0  0  0  0  0  0  0  0
   -0.2708   -1.3167    0.0000 N   0  0  0  0  0  0  0  0  0  0  0  0
    1.0125   -0.9417    0.0000 C   0  0  0  0  0  0  0  0  0  0  0  0
   -0.2458   -0.4917    0.0000 C   0  0  0  0  0  0  0  0  0  0  0  0
    0.5042   -1.5917    0.0000 C   0  0  0  0  0  0  0  0  0  0  0  0
   -1.0958   -1.2917    0.0000 C   0  0  0  0  0  0  0  0  0  0  0  0
   -1.0708   -0.4667    0.0000 C   0  0  0  0  0  0  0  0  0  0  0  0
    0.7375   -2.3875    0.0000 C   0  0  0  0  0  0  0  0  0  0  0  0
    1.0417    0.5333    0.0000 O   0  0  0  0  0  0  0  0  0  0  0  0
    0.1875    0.4833    0.0000 O   0  0  0  0  0  0  0  0  0  0  0  0
    1.7375   -0.5417    0.0000 C   0  0  0  0  0  0  0  0  0  0  0  0
    3.2125    1.0708    0.0000 N   0  0  0  0  0  0  0  0  0  0  0  0
    2.4875    0.6708    0.0000 C   0  0  0  0  0  0  0  0  0  0  0  0
   -1.7083   -1.8542    0.0000 O   0  0  0  0  0  0  0  0  0  0  0  0
    0.1667   -2.9792    0.0000 O   0  0  0  0  0  0  0  0  0  0  0  0
    1.7542    0.2750    0.0000 C   0  0  0  0  0  0  0  0  0  0  0  0
    1.5417   -2.5875    0.0000 O   0  0  0  0  0  0  0  0  0  0  0  0
    1.7125   -1.3667    0.0000 C   0  0  0  0  0  0  0  0  0  0  0  0
   -0.3705    0.5005    0.0000 H   0  0  0  0  0  0  0  0  0  0  0  0
  3  5  1  0
  4  2  1  0
  5  2  1  0
  6  4  1  0
  7  8  1  0
  8  5  1  0
  6  9  1  6
 10  2  2  0
 11  2  2  0
  4 12  1  0
 13 14  3  0
 14 17  1  0
 15  7  2  0
 16  9  1  0
 17 12  2  0
 18  9  2  0
  4 19  1  6
  3  6  1  0
  3  7  1  0
  5 20  1  6
M  CHG  2   1   1  16  -1
M  END

> <chembl_id>
CHEMBL6461

> <chembl_pref_name>
Ro-481220

$$$$

     RDKit          2D

 35 37  0  0  1  0  0  0  0  0999 V2000
    1.8917   -3.5292    0.0000 C   0  0  0  0  0  0  0  0  0  0  0  0
    1.1875   -3.1167    0.0000 C   0  0  0  0  0  0  0  0  0  0  0  0
    1.8917   -4.3500    0.0000 C   0  0  0  0  0  0  0  0  0  0  0  0
    0.4750   -3.5167    0.0000 N   0  0  0  0  0  0  0  0  0  0  0  0
    1.1792   -4.7542    0.0000 N   0  0  0  0  0  0  0  0  0  0  0  0
    7.6000   -1.8542    0.0000 C   0  0  0  0  0  0  0  0  0  0  0  0
    6.8875   -2.2667    0.0000 C   0  0  0  0  0  0  0  0  0  0  0  0
    8.3125   -2.2625    0.0000 N   0  0  0  0  0  0  0  0  0  0  0  0
    0.4667   -4.3417    0.0000 C   0  0  0  0  0  0  0  0  0  0  0  0
    2.6042   -3.1042    0.0000 C   0  0  0  0  0  0  0  0  0  0  0  0
    6.1667   -1.8625    0.0000 C   0  0  0  0  0  0  0  0  0  0  0  0
    3.3167   -3.5167    0.0000 C   0  0  0  0  0  0  0  0  0  0  0  0
    9.0250   -1.8500    0.0000 C   0  0  0  0  0  0  0  0  0  0  0  0
    5.4542   -2.2792    0.0000 C   0  0  0  0  0  0  0  0  0  0  0  0
    9.7417   -2.2542    0.0000 C   0  0  0  0  0  0  0  0  0  0  0  0
    5.4625   -3.1000    0.0000 C   0  0  0  0  0  0  0  0  0  0  0  0
    4.7417   -3.5125    0.0000 N   0  0  0  0  0  0  0  0  0  0  0  0
    2.6042   -4.7625    0.0000 C   0  0  0  0  0  0  0  0  0  0  0  0
    4.0292   -3.1042    0.0000 C   0  0  0  0  0  0  0  0  0  0  0  0
    6.8875   -3.0917    0.0000 C   0  0  0  0  0  0  0  0  0  0  0  0
    3.3167   -4.3500    0.0000 C   0  0  0  0  0  0  0  0  0  0  0  0
    5.4417   -4.7792    0.0000 C   0  0  0  0  0  0  0  0  0  0  0  0
    6.1500   -5.2250    0.0000 C   0  0  0  0  0  0  0  0  0  0  0  0
    1.1917   -2.2917    0.0000 O   0  0  0  0  0  0  0  0  0  0  0  0
    7.5917   -1.0292    0.0000 O   0  0  0  0  0  0  0  0  0  0  0  0
    6.1750   -3.5125    0.0000 C   0  0  0  0  0  0  0  0  0  0  0  0
   10.4542   -1.8375    0.0000 O   0  0  0  0  0  0  0  0  0  0  0  0
    6.1542   -1.0375    0.0000 F   0  0  0  0  0  0  0  0  0  0  0  0
    9.0167   -1.0292    0.0000 C   0  0  0  0  0  0  0  0  0  0  0  0
    4.7417   -4.3375    0.0000 C   0  0  0  0  0  0  0  0  0  0  0  0
    9.7500   -3.0792    0.0000 O   0  0  0  0  0  0  0  0  0  0  0  0
   -0.2458   -4.7500    0.0000 C   0  0  0  0  0  0  0  0  0  0  0  0
    4.0375   -4.7625    0.0000 C   0  0  0  0  0  0  0  0  0  0  0  0
    8.3042   -0.6167    0.0000 C   0  0  0  0  0  0  0  0  0  0  0  0
    9.7292   -0.6042    0.0000 C   0  0  0  0  0  0  0  0  0  0  0  0
  2  1  1  0
  3  1  2  0
  4  2  2  0
  5  3  1  0
  6  7  1  0
  7 20  2  0
  8  6  1  0
  9  5  2  0
 10  1  1  0
 11 14  2  0
 12 10  2  0
 13  8  1  0
 14 16  1  0
 15 13  1  0
 16 17  1  0
 17 19  1  0
 18  3  1  0
 19 12  1  0
 20 26  1  0
 21 12  1  0
 22 30  1  0
 23 22  3  0
 24  2  1  0
 25  6  2  0
 26 16  2  0
 27 15  2  0
 28 11  1  0
 13 29  1  6
 30 17  1  0
 31 15  1  0
 32  9  1  0
 33 21  1  0
 34 29  1  0
 35 29  1  0
 18 21  2  0
  4  9  1  0
  7 11  1  0
M  END

> <chembl_id>
CHEMBL6715

> <chembl_pref_name>
None

$$$$

     RDKit          2D

 18 20  0  0  0  0  0  0  0  0999 V2000
    4.8917   -2.0292    0.0000 C   0  0  0  0  0  0  0  0  0  0  0  0
    3.4542   -2.8500    0.0000 C   0  0  0  0  0  0  0  0  0  0  0  0
    3.4542   -2.0250    0.0000 C   0  0  0  0  0  0  0  0  0  0  0  0
    4.1667   -3.2667    0.0000 N   0  0  0  0  0  0  0  0  0  0  0  0
    4.8917   -2.8542    0.0000 C   0  0  0  0  0  0  0  0  0  0  0  0
    2.7417   -3.2667    0.0000 C   0  0  0  0  0  0  0  0  0  0  0  0
    2.7417   -4.0917    0.0000 C   0  0  0  0  0  0  0  0  0  0  0  0
    5.7167   -2.0292    0.0000 O   0  0  0  0  0  0  0  0  0  0  0  0
    4.6417   -1.2417    0.0000 O   0  0  0  0  0  0  0  0  0  0  0  0
    5.6042   -3.2667    0.0000 O   0  0  0  0  0  0  0  0  0  0  0  0
    2.0292   -4.5042    0.0000 F   0  0  0  0  0  0  0  0  0  0  0  0
    3.4625   -4.5042    0.0000 F   0  0  0  0  0  0  0  0  0  0  0  0
    1.9417   -3.8792    0.0000 F   0  0  0  0  0  0  0  0  0  0  0  0
    2.7417   -1.6125    0.0000 C   0  0  0  0  0  0  0  0  0  0  0  0
    2.0292   -2.8542    0.0000 C   0  0  0  0  0  0  0  0  0  0  0  0
    2.0292   -2.0250    0.0000 C   0  0  0  0  0  0  0  0  0  0  0  0
    5.9750   -1.2417    0.0000 C   0  0  0  0  0  0  0  0  0  0  0  0
    5.3042   -0.7542    0.0000 C   0  0  0  0  0  0  0  0  0  0  0  0
  2  3  1  0
  3  1  1  0
  4  5  1  0
  5  1  1  0
  6  2  2  0
  7  6  1  0
  8  1  1  0
  9  1  1  0
 10  5  2  0
 11  7  1  0
 12  7  1  0
 13  7  1  0
 14  3  2  0
 15 16  2  0
 16 14  1  0
 17  8  1  0
 18  9  1  0
 18 17  1  0
  4  2  1  0
  6 15  1  0
M  END

> <chembl_id>
CHEMBL266316

> <chembl_pref_name>
None

$$$$

     RDKit          2D

 38 43  0  0  1  0  0  0  0  0999 V2000
    8.3292   -7.1125    0.0000 C   0  0  0  0  0  0  0  0  0  0  0  0
    8.3292   -6.3250    0.0000 C   0  0  0  0  0  0  0  0  0  0  0  0
    6.1667   -7.5042    0.0000 C   0  0  0  0  0  0  0  0  0  0  0  0
    9.0792   -5.0542    0.0000 C   0  0  0  0  0  0  0  0  0  0  0  0
    7.6167   -7.5042    0.0000 C   0  0  0  0  0  0  0  0  0  0  0  0
    9.0792   -5.9167    0.0000 C   0  0  0  0  0  0  0  0  0  0  0  0
    9.7667   -7.1125    0.0000 C   0  0  0  0  0  0  0  0  0  0  0  0
    6.8792   -7.1125    0.0000 C   0  0  0  0  0  0  0  0  0  0  0  0
    9.7667   -6.3250    0.0000 C   0  0  0  0  0  0  0  0  0  0  0  0
    3.4792   -8.4667    0.0000 C   0  0  0  0  0  0  0  0  0  0  0  0
    3.1417   -7.8792    0.0000 O   0  0  0  0  0  0  0  0  0  0  0  0
    8.3667   -4.6167    0.0000 C   0  0  0  0  0  0  0  0  0  0  0  0
    3.1500   -9.0542    0.0000 C   0  0  0  0  0  0  0  0  0  0  0  0
    6.1667   -8.3667    0.0000 C   0  0  0  0  0  0  0  0  0  0  0  0
    2.1167   -8.4792    0.0000 C   0  0  0  0  0  0  0  0  0  0  0  0
    7.6167   -5.9167    0.0000 C   0  0  0  0  0  0  0  0  0  0  0  0
    2.4625   -9.0625    0.0000 C   0  0  0  0  0  0  0  0  0  0  0  0
    8.5917   -3.7792    0.0000 C   0  0  0  0  0  0  0  0  0  0  0  0
    2.4542   -7.8875    0.0000 C   0  0  0  0  0  0  0  0  0  0  0  0
    6.8792   -6.3250    0.0000 C   0  0  0  0  0  0  0  0  0  0  0  0
    9.5042   -3.7792    0.0000 O   0  0  0  0  0  0  0  0  0  0  0  0
    5.4750   -7.1125    0.0000 C   0  0  0  0  0  0  0  0  0  0  0  0
    7.6167   -8.3667    0.0000 C   0  0  0  0  0  0  0  0  0  0  0  0
    9.7625   -4.5250    0.0000 C   0  0  0  0  0  0  0  0  0  0  0  0
    4.1292   -8.7750    0.0000 O   0  0  0  0  0  0  0  0  0  0  0  0
    5.4750   -8.7542    0.0000 C   0  0  0  0  0  0  0  0  0  0  0  0
    6.8792   -8.7542    0.0000 C   0  0  0  0  0  0  0  0  0  0  0  0
    8.3292   -8.0917    0.0000 O   0  0  0  0  0  0  0  0  0  0  0  0
    8.0667   -3.1667    0.0000 O   0  0  0  0  0  0  0  0  0  0  0  0
    4.7167   -8.3667    0.0000 C   0  0  0  0  0  0  0  0  0  0  0  0
    8.3292   -5.4167    0.0000 C   0  0  0  0  0  0  0  0  0  0  0  0
   10.4542   -5.9292    0.0000 O   0  0  0  0  0  0  0  0  0  0  0  0
    4.7167   -7.5042    0.0000 C   0  0  0  0  0  0  0  0  0  0  0  0
    1.4417   -8.4792    0.0000 O   0  0  0  0  0  0  0  0  0  0  0  0
    2.1292   -9.6542    0.0000 O   0  0  0  0  0  0  0  0  0  0  0  0
    6.1667   -6.6792    0.0000 C   0  0  0  0  0  0  0  0  0  0  0  0
    2.1042   -7.3000    0.0000 C   0  0  0  0  0  0  0  0  0  0  0  0
    9.6667   -5.5750    0.0000 H   0  0  0  0  0  0  0  0  0  0  0  0
  2  1  1  0
  3  8  1  0
  4  6  1  0
  5  1  1  0
  6  2  1  0
  7  1  1  0
  8  5  1  0
  9  7  1  0
 10 25  1  0
 11 10  1  0
 12  4  2  0
 13 10  1  0
 14 27  1  0
 15 17  1  0
 16  2  1  0
 17 13  1  0
 18 12  1  0
 19 11  1  0
 20  8  1  0
 21 24  1  0
 22  3  1  0
 23  5  1  0
 24  4  1  0
 25 30  1  0
 26 14  1  0
 27 23  1  0
 28  1  1  0
 29 18  2  0
 30 26  1  0
 31  2  1  0
 32  9  1  0
 33 22  1  0
 34 15  1  0
 35 17  1  0
 36  3  1  0
 37 19  1  0
  6 38  1  6
  9  6  1  0
 20 16  1  0
 14  3  1  0
 30 33  1  0
 21 18  1  0
 15 19  1  0
M  END

> <chembl_id>
CHEMBL6402

> <chembl_pref_name>
None

$$$$

     RDKit          2D

 47 53  0  0  1  0  0  0  0  0999 V2000
    9.7667   -6.6542    0.0000 C   0  0  0  0  0  0  0  0  0  0  0  0
    9.7667   -5.8417    0.0000 C   0  0  0  0  0  0  0  0  0  0  0  0
    7.5292   -7.0667    0.0000 C   0  0  0  0  0  0  0  0  0  0  0  0
   10.5542   -4.5292    0.0000 C   0  0  0  0  0  0  0  0  0  0  0  0
    9.0375   -7.0667    0.0000 C   0  0  0  0  0  0  0  0  0  0  0  0
   10.5542   -5.4250    0.0000 C   0  0  0  0  0  0  0  0  0  0  0  0
   11.2542   -6.6542    0.0000 C   0  0  0  0  0  0  0  0  0  0  0  0
    8.2667   -6.6542    0.0000 C   0  0  0  0  0  0  0  0  0  0  0  0
    3.3417   -8.0667    0.0000 C   0  0  0  0  0  0  0  0  0  0  0  0
   11.2542   -5.8417    0.0000 C   0  0  0  0  0  0  0  0  0  0  0  0
    2.0292   -8.4250    0.0000 C   0  0  0  0  0  0  0  0  0  0  0  0
    4.7542   -8.0542    0.0000 C   0  0  0  0  0  0  0  0  0  0  0  0
    1.6792   -7.8042    0.0000 O   0  0  0  0  0  0  0  0  0  0  0  0
    4.4042   -7.4542    0.0000 O   0  0  0  0  0  0  0  0  0  0  0  0
    9.8042   -4.0792    0.0000 C   0  0  0  0  0  0  0  0  0  0  0  0
    4.4125   -8.6667    0.0000 C   0  0  0  0  0  0  0  0  0  0  0  0
    1.6750   -9.0292    0.0000 C   0  0  0  0  0  0  0  0  0  0  0  0
    7.5292   -7.9542    0.0000 C   0  0  0  0  0  0  0  0  0  0  0  0
    3.7042   -8.6750    0.0000 C   0  0  0  0  0  0  0  0  0  0  0  0
    0.6167   -8.4167    0.0000 C   0  0  0  0  0  0  0  0  0  0  0  0
    9.0375   -5.4250    0.0000 C   0  0  0  0  0  0  0  0  0  0  0  0
    3.6917   -7.4542    0.0000 C   0  0  0  0  0  0  0  0  0  0  0  0
    0.9667   -9.0292    0.0000 C   0  0  0  0  0  0  0  0  0  0  0  0
   10.0417   -3.2042    0.0000 C   0  0  0  0  0  0  0  0  0  0  0  0
    0.9750   -7.8042    0.0000 C   0  0  0  0  0  0  0  0  0  0  0  0
    2.6417   -8.0750    0.0000 O   0  0  0  0  0  0  0  0  0  0  0  0
    8.2667   -5.8417    0.0000 C   0  0  0  0  0  0  0  0  0  0  0  0
   10.9917   -3.2042    0.0000 O   0  0  0  0  0  0  0  0  0  0  0  0
    6.8167   -6.6542    0.0000 C   0  0  0  0  0  0  0  0  0  0  0  0
    9.0375   -7.9542    0.0000 C   0  0  0  0  0  0  0  0  0  0  0  0
   11.2542   -3.9792    0.0000 C   0  0  0  0  0  0  0  0  0  0  0  0
    5.4292   -8.3750    0.0000 O   0  0  0  0  0  0  0  0  0  0  0  0
    6.8167   -8.3542    0.0000 C   0  0  0  0  0  0  0  0  0  0  0  0
    8.2667   -8.3542    0.0000 C   0  0  0  0  0  0  0  0  0  0  0  0
    9.7667   -7.6750    0.0000 O   0  0  0  0  0  0  0  0  0  0  0  0
    9.5042   -2.5792    0.0000 O   0  0  0  0  0  0  0  0  0  0  0  0
    6.0417   -7.9542    0.0000 C   0  0  0  0  0  0  0  0  0  0  0  0
    9.7667   -4.9042    0.0000 C   0  0  0  0  0  0  0  0  0  0  0  0
   11.9667   -5.4292    0.0000 O   0  0  0  0  0  0  0  0  0  0  0  0
    6.0417   -7.0667    0.0000 C   0  0  0  0  0  0  0  0  0  0  0  0
   -0.0833   -8.4167    0.0000 O   0  0  0  0  0  0  0  0  0  0  0  0
    3.3542   -9.2875    0.0000 O   0  0  0  0  0  0  0  0  0  0  0  0
    0.6167   -9.6292    0.0000 O   0  0  0  0  0  0  0  0  0  0  0  0
    7.5292   -6.2125    0.0000 C   0  0  0  0  0  0  0  0  0  0  0  0
    3.3375   -6.8500    0.0000 C   0  0  0  0  0  0  0  0  0  0  0  0
    0.6250   -7.1917    0.0000 C   0  0  0  0  0  0  0  0  0  0  0  0
   11.1625   -5.0667    0.0000 H   0  0  0  0  0  0  0  0  0  0  0  0
  2  1  1  0
  3  8  1  0
  4  6  1  0
  5  1  1  0
  6  2  1  0
  7  1  1  0
  8  5  1  0
  9 19  1  0
 10  7  1  0
 11 26  1  0
 12 32  1  0
 13 11  1  0
 14 12  1  0
 15  4  2  0
 16 12  1  0
 17 11  1  0
 18 34  1  0
 19 16  1  0
 20 23  1  0
 21  2  1  0
 22 14  1  0
 23 17  1  0
 24 15  1  0
 25 13  1  0
 26  9  1  0
 27  8  1  0
 28 31  1  0
 29  3  1  0
 30  5  1  0
 31  4  1  0
 32 37  1  0
 33 18  1  0
 34 30  1  0
 35  1  1  0
 36 24  2  0
 37 33  1  0
 38  2  1  0
 39 10  1  0
 40 29  1  0
 41 20  1  0
 42 19  1  0
 43 23  1  0
 44  3  1  0
 45 22  1  0
 46 25  1  0
  6 47  1  6
 10  6  1  0
 27 21  1  0
 18  3  1  0
 37 40  1  0
 28 24  1  0
  9 22  1  0
 20 25  1  0
M  END

> <chembl_id>
CHEMBL267703

> <chembl_pref_name>
None

$$$$

     RDKit          2D

 14 15  0  0  0  0  0  0  0  0999 V2000
   -0.6333    0.8375    0.0000 C   0  0  0  0  0  0  0  0  0  0  0  0
   -0.1125    1.1458    0.0000 C   0  0  0  0  0  0  0  0  0  0  0  0
    0.4042    0.8458    0.0000 C   0  0  0  0  0  0  0  0  0  0  0  0
   -0.6333    0.2375    0.0000 C   0  0  0  0  0  0  0  0  0  0  0  0
   -1.2083    1.0208    0.0000 O   0  0  0  0  0  0  0  0  0  0  0  0
   -1.2000    0.0500    0.0000 O   0  0  0  0  0  0  0  0  0  0  0  0
   -1.5583    0.5333    0.0000 C   0  0  0  0  0  0  0  0  0  0  0  0
    0.9250    1.1458    0.0000 C   0  0  0  0  0  0  0  0  0  0  0  0
    0.4042    0.2375    0.0000 C   0  0  0  0  0  0  0  0  0  0  0  0
   -0.1125   -0.0625    0.0000 C   0  0  0  0  0  0  0  0  0  0  0  0
    1.9625    1.1500    0.0000 N   0  0  0  0  0  0  0  0  0  0  0  0
    1.4417    0.8500    0.0000 C   0  0  0  0  0  0  0  0  0  0  0  0
   -0.1208    1.7458    0.0000 C   0  0  0  0  0  0  0  0  0  0  0  0
    1.4417    0.2500    0.0000 C   0  0  0  0  0  0  0  0  0  0  0  0
  2  1  1  0
  3  2  2  0
  4  1  2  0
  5  1  1  0
  6  4  1  0
  7  5  1  0
  8  3  1  0
  9 10  2  0
 10  4  1  0
 11 12  1  0
 12  8  1  0
 13  2  1  0
 14 12  1  0
  7  6  1  0
  9  3  1  0
M  END

> <chembl_id>
CHEMBL6391

> <chembl_pref_name>
None

$$$$

     RDKit          2D

 14 15  0  0  0  0  0  0  0  0999 V2000
   -1.3208   -0.5667    0.0000 C   0  0  0  0  0  0  0  0  0  0  0  0
   -1.3208   -1.1667    0.0000 C   0  0  0  0  0  0  0  0  0  0  0  0
   -0.8000   -1.4667    0.0000 C   0  0  0  0  0  0  0  0  0  0  0  0
   -0.2833   -0.5667    0.0000 C   0  0  0  0  0  0  0  0  0  0  0  0
   -1.8958   -0.3875    0.0000 O   0  0  0  0  0  0  0  0  0  0  0  0
   -1.8875   -1.3542    0.0000 O   0  0  0  0  0  0  0  0  0  0  0  0
   -0.8000   -0.2667    0.0000 C   0  0  0  0  0  0  0  0  0  0  0  0
   -0.2833   -1.1667    0.0000 C   0  0  0  0  0  0  0  0  0  0  0  0
   -2.2458   -0.8750    0.0000 C   0  0  0  0  0  0  0  0  0  0  0  0
    0.2375   -0.2625    0.0000 C   0  0  0  0  0  0  0  0  0  0  0  0
    1.2750   -0.2542    0.0000 N   0  0  0  0  0  0  0  0  0  0  0  0
   -0.8000   -2.0667    0.0000 C   0  0  0  0  0  0  0  0  0  0  0  0
    0.7542   -0.5542    0.0000 C   0  0  0  0  0  0  0  0  0  0  0  0
    0.7542   -1.1542    0.0000 C   0  0  0  0  0  0  0  0  0  0  0  0
  2  1  2  0
  3  2  1  0
  4  7  2  0
  5  1  1  0
  6  2  1  0
  7  1  1  0
  8  4  1  0
  9  5  1  0
 10  4  1  0
 11 13  1  0
 12  3  1  0
 13 10  1  0
 14 13  1  0
  9  6  1  0
  3  8  2  0
M  END

> <chembl_id>
CHEMBL6330

> <chembl_pref_name>
None

$$$$

     RDKit          2D

 40 43  0  0  1  0  0  0  0  0999 V2000
   -8.0417   -0.6042    0.0000 C   0  0  0  0  0  0  0  0  0  0  0  0
   -7.3292   -1.0167    0.0000 C   0  0  0  0  0  0  0  0  0  0  0  0
   -8.7542   -1.0042    0.0000 N   0  0  0  0  0  0  0  0  0  0  0  0
   -8.0500   -2.2417    0.0000 N   0  0  0  0  0  0  0  0  0  0  0  0
    2.6417    3.1583    0.0000 N   0  0  0  0  0  0  0  0  0  0  0  0
   -7.3375   -1.8375    0.0000 C   0  0  0  0  0  0  0  0  0  0  0  0
   -8.7542   -1.8292    0.0000 C   0  0  0  0  0  0  0  0  0  0  0  0
   -1.6333    0.6583    0.0000 C   0  0  0  0  0  0  0  0  0  0  0  0
   -0.9208    0.2500    0.0000 N   0  0  0  0  0  0  0  0  0  0  0  0
   -0.2083    0.6625    0.0000 C   0  0  0  0  0  0  0  0  0  0  0  0
    0.5125    0.2583    0.0000 C   0  0  0  0  0  0  0  0  0  0  0  0
   -4.4833   -1.0000    0.0000 N   0  0  0  0  0  0  0  0  0  0  0  0
   -3.7833   -2.2667    0.0000 C   0  0  0  0  0  0  0  0  0  0  0  0
    1.9292    2.7375    0.0000 C   0  0  0  0  0  0  0  0  0  0  0  0
   -3.0833   -2.7125    0.0000 C   0  0  0  0  0  0  0  0  0  0  0  0
   -6.6250   -0.5917    0.0000 C   0  0  0  0  0  0  0  0  0  0  0  0
    3.3625    2.7458    0.0000 O   0  0  0  0  0  0  0  0  0  0  0  0
   -2.3458    0.2458    0.0000 C   0  0  0  0  0  0  0  0  0  0  0  0
    2.6417    3.9833    0.0000 O   0  0  0  0  0  0  0  0  0  0  0  0
   -3.7708   -0.5875    0.0000 C   0  0  0  0  0  0  0  0  0  0  0  0
   -8.0292    0.2208    0.0000 O   0  0  0  0  0  0  0  0  0  0  0  0
   -5.1958   -0.5917    0.0000 C   0  0  0  0  0  0  0  0  0  0  0  0
   -1.6333    1.4833    0.0000 O   0  0  0  0  0  0  0  0  0  0  0  0
   -5.9083   -1.0042    0.0000 C   0  0  0  0  0  0  0  0  0  0  0  0
   -0.2083    1.4875    0.0000 C   0  0  0  0  0  0  0  0  0  0  0  0
    0.5167   -0.5667    0.0000 O   0  0  0  0  0  0  0  0  0  0  0  0
   -6.6250   -2.2500    0.0000 C   0  0  0  0  0  0  0  0  0  0  0  0
   -3.0625    0.6500    0.0000 C   0  0  0  0  0  0  0  0  0  0  0  0
   -2.3458   -0.5792    0.0000 C   0  0  0  0  0  0  0  0  0  0  0  0
   -3.7750    0.2333    0.0000 C   0  0  0  0  0  0  0  0  0  0  0  0
   -3.0583   -1.0000    0.0000 C   0  0  0  0  0  0  0  0  0  0  0  0
    1.2042    3.1458    0.0000 C   0  0  0  0  0  0  0  0  0  0  0  0
    1.9292    1.9083    0.0000 C   0  0  0  0  0  0  0  0  0  0  0  0
    0.5042    1.9083    0.0000 C   0  0  0  0  0  0  0  0  0  0  0  0
   -4.4750   -1.8250    0.0000 C   0  0  0  0  0  0  0  0  0  0  0  0
    1.2250    0.6708    0.0000 O   0  0  0  0  0  0  0  0  0  0  0  0
   -5.9083   -1.8375    0.0000 C   0  0  0  0  0  0  0  0  0  0  0  0
    0.5000    2.7250    0.0000 C   0  0  0  0  0  0  0  0  0  0  0  0
    1.2167    1.4958    0.0000 C   0  0  0  0  0  0  0  0  0  0  0  0
   -9.4667   -2.2375    0.0000 C   0  0  0  0  0  0  0  0  0  0  0  0
  2  1  1  0
  3  1  2  0
  4  7  2  0
  5 14  1  0
  6  2  2  0
  7  3  1  0
  8 18  1  0
  9  8  1  0
 10  9  1  0
 11 10  1  0
 12 22  1  0
 13 35  1  0
 14 33  2  0
 15 13  3  0
 16  2  1  0
 17  5  1  0
 18 29  2  0
 19  5  2  0
 20 12  1  0
 21  1  1  0
 22 24  1  0
 23  8  2  0
 24 16  2  0
 10 25  1  6
 26 11  2  0
 27  6  1  0
 28 30  2  0
 29 31  1  0
 30 20  1  0
 31 20  2  0
 32 38  2  0
 33 39  1  0
 34 25  1  0
 35 12  1  0
 36 11  1  0
 37 24  1  0
 38 34  1  0
 39 34  2  0
 40  7  1  0
  4  6  1  0
 37 27  2  0
 28 18  1  0
 14 32  1  0
M  CHG  2   5   1  17  -1
M  END

> <chembl_id>
CHEMBL268629

> <chembl_pref_name>
None

$$$$

     RDKit          2D

 32 35  0  0  0  0  0  0  0  0999 V2000
    4.3167   -2.7167    0.0000 S   0  0  0  0  0  0  0  0  0  0  0  0
    5.0292   -3.1292    0.0000 N   0  0  0  0  0  0  0  0  0  0  0  0
    5.7542   -2.7167    0.0000 C   0  0  0  0  0  0  0  0  0  0  0  0
    6.4667   -3.1292    0.0000 C   0  0  0  0  0  0  0  0  0  0  0  0
    4.3167   -1.8875    0.0000 C   0  0  0  0  0  0  0  0  0  0  0  0
    7.1792   -2.7000    0.0000 N   0  0  0  0  0  0  0  0  0  0  0  0
    3.5917   -1.4792    0.0000 C   0  0  0  0  0  0  0  0  0  0  0  0
    5.7417   -1.8875    0.0000 N   0  0  0  0  0  0  0  0  0  0  0  0
    3.5917   -0.6542    0.0000 C   0  0  0  0  0  0  0  0  0  0  0  0
    2.8792   -0.2375    0.0000 C   0  0  0  0  0  0  0  0  0  0  0  0
    3.4917   -2.7167    0.0000 O   0  0  0  0  0  0  0  0  0  0  0  0
    4.3167   -3.5500    0.0000 O   0  0  0  0  0  0  0  0  0  0  0  0
    7.1792   -1.8667    0.0000 C   0  0  0  0  0  0  0  0  0  0  0  0
    6.4792   -3.9542    0.0000 O   0  0  0  0  0  0  0  0  0  0  0  0
    2.8792    0.6083    0.0000 N   0  0  0  0  0  0  0  0  0  0  0  0
    6.4625   -1.4667    0.0000 C   0  0  0  0  0  0  0  0  0  0  0  0
    7.9000   -1.4542    0.0000 Br  0  0  0  0  0  0  0  0  0  0  0  0
    7.1917   -4.3625    0.0000 C   0  0  0  0  0  0  0  0  0  0  0  0
    5.0292   -1.4667    0.0000 C   0  0  0  0  0  0  0  0  0  0  0  0
    2.8792   -1.9000    0.0000 C   0  0  0  0  0  0  0  0  0  0  0  0
    4.3167   -0.2167    0.0000 C   0  0  0  0  0  0  0  0  0  0  0  0
    2.1542   -0.6542    0.0000 C   0  0  0  0  0  0  0  0  0  0  0  0
    7.2042   -5.1917    0.0000 C   0  0  0  0  0  0  0  0  0  0  0  0
    2.1542   -1.4792    0.0000 C   0  0  0  0  0  0  0  0  0  0  0  0
    5.0292   -0.6417    0.0000 C   0  0  0  0  0  0  0  0  0  0  0  0
    3.5917    1.0208    0.0000 C   0  0  0  0  0  0  0  0  0  0  0  0
    2.1542    1.0083    0.0000 C   0  0  0  0  0  0  0  0  0  0  0  0
    7.9167   -5.6042    0.0000 C   0  0  0  0  0  0  0  0  0  0  0  0
    6.4875   -5.6042    0.0000 C   0  0  0  0  0  0  0  0  0  0  0  0
    6.4917   -6.4417    0.0000 C   0  0  0  0  0  0  0  0  0  0  0  0
    7.9292   -6.4167    0.0000 C   0  0  0  0  0  0  0  0  0  0  0  0
    7.2125   -6.8542    0.0000 C   0  0  0  0  0  0  0  0  0  0  0  0
  2  1  1  0
  3  2  1  0
  4  3  1  0
  5  1  1  0
  6  4  2  0
  7  5  1  0
  8  3  2  0
  9  7  2  0
 10  9  1  0
 11  1  2  0
 12  1  2  0
 13 16  2  0
 14  4  1  0
 15 10  1  0
 16  8  1  0
 17 13  1  0
 18 14  1  0
 19  5  2  0
 20  7  1  0
 21 25  2  0
 22 24  1  0
 23 18  1  0
 24 20  2  0
 25 19  1  0
 26 15  1  0
 27 15  1  0
 28 23  1  0
 29 23  2  0
 30 29  1  0
 31 28  2  0
 32 30  2  0
 21  9  1  0
 10 22  2  0
 13  6  1  0
 32 31  1  0
M  END

> <chembl_id>
CHEMBL6506

> <chembl_pref_name>
None

$$$$

     RDKit          2D

 27 29  0  0  0  0  0  0  0  0999 V2000
    4.3375   -3.5500    0.0000 S   0  0  0  0  0  0  0  0  0  0  0  0
    5.0417   -3.9625    0.0000 N   0  0  0  0  0  0  0  0  0  0  0  0
    5.7542   -3.5417    0.0000 C   0  0  0  0  0  0  0  0  0  0  0  0
    4.3375   -2.7250    0.0000 C   0  0  0  0  0  0  0  0  0  0  0  0
    7.1792   -3.5292    0.0000 N   0  0  0  0  0  0  0  0  0  0  0  0
    6.4750   -3.9542    0.0000 C   0  0  0  0  0  0  0  0  0  0  0  0
    3.6167   -2.3167    0.0000 C   0  0  0  0  0  0  0  0  0  0  0  0
    5.7417   -2.7167    0.0000 N   0  0  0  0  0  0  0  0  0  0  0  0
    3.6167   -1.4917    0.0000 C   0  0  0  0  0  0  0  0  0  0  0  0
    2.9000   -1.0792    0.0000 C   0  0  0  0  0  0  0  0  0  0  0  0
    3.5125   -3.5417    0.0000 O   0  0  0  0  0  0  0  0  0  0  0  0
    4.3250   -4.3750    0.0000 O   0  0  0  0  0  0  0  0  0  0  0  0
    7.1792   -2.7042    0.0000 C   0  0  0  0  0  0  0  0  0  0  0  0
    2.9000   -0.2542    0.0000 N   0  0  0  0  0  0  0  0  0  0  0  0
    6.4542   -2.3042    0.0000 C   0  0  0  0  0  0  0  0  0  0  0  0
    6.4750   -4.7792    0.0000 O   0  0  0  0  0  0  0  0  0  0  0  0
    7.8792   -2.2917    0.0000 Br  0  0  0  0  0  0  0  0  0  0  0  0
    5.0500   -2.3125    0.0000 C   0  0  0  0  0  0  0  0  0  0  0  0
    4.3250   -1.0750    0.0000 C   0  0  0  0  0  0  0  0  0  0  0  0
    2.9000   -2.7292    0.0000 C   0  0  0  0  0  0  0  0  0  0  0  0
    2.1917   -1.4917    0.0000 C   0  0  0  0  0  0  0  0  0  0  0  0
    2.1917   -2.3167    0.0000 C   0  0  0  0  0  0  0  0  0  0  0  0
    5.0500   -1.4875    0.0000 C   0  0  0  0  0  0  0  0  0  0  0  0
    3.6167    0.1750    0.0000 C   0  0  0  0  0  0  0  0  0  0  0  0
    2.1792    0.1583    0.0000 C   0  0  0  0  0  0  0  0  0  0  0  0
    7.1917   -5.1792    0.0000 C   0  0  0  0  0  0  0  0  0  0  0  0
    7.1917   -6.0042    0.0000 C   0  0  0  0  0  0  0  0  0  0  0  0
  2  1  1  0
  3  2  1  0
  4  1  1  0
  5  6  2  0
  6  3  1  0
  7  4  1  0
  8  3  2  0
  9  7  2  0
 10  9  1  0
 11  1  2  0
 12  1  2  0
 13 15  2  0
 14 10  1  0
 15  8  1  0
 16  6  1  0
 17 13  1  0
 18  4  2  0
 19 23  2  0
 20  7  1  0
 21 22  1  0
 22 20  2  0
 23 18  1  0
 24 14  1  0
 25 14  1  0
 26 16  1  0
 27 26  1  0
 19  9  1  0
 21 10  2  0
 13  5  1  0
M  END

> <chembl_id>
CHEMBL6588

> <chembl_pref_name>
None

$$$$

     RDKit          2D

 23 25  0  0  0  0  0  0  0  0999 V2000
    3.7542   -5.0167    0.0000 C   0  0  0  0  0  0  0  0  0  0  0  0
    3.2667   -4.3500    0.0000 C   0  0  0  0  0  0  0  0  0  0  0  0
    2.4792   -4.6125    0.0000 C   0  0  0  0  0  0  0  0  0  0  0  0
    3.2750   -5.6875    0.0000 S   0  0  0  0  0  0  0  0  0  0  0  0
    4.6042   -1.7167    0.0000 C   0  0  0  0  0  0  0  0  0  0  0  0
    2.4875   -5.4375    0.0000 C   0  0  0  0  0  0  0  0  0  0  0  0
    1.7667   -4.1917    0.0000 C   0  0  0  0  0  0  0  0  0  0  0  0
    4.5792   -5.0125    0.0000 C   0  0  0  0  0  0  0  0  0  0  0  0
    1.7625   -3.3792    0.0000 S   0  0  0  0  0  0  0  0  0  0  0  0
    3.8917   -2.1292    0.0000 C   0  0  0  0  0  0  0  0  0  0  0  0
    1.0542   -5.4417    0.0000 N   0  0  0  0  0  0  0  0  0  0  0  0
    4.9875   -4.2917    0.0000 O   0  0  0  0  0  0  0  0  0  0  0  0
    5.3250   -2.1250    0.0000 F   0  0  0  0  0  0  0  0  0  0  0  0
    4.6042   -0.8917    0.0000 F   0  0  0  0  0  0  0  0  0  0  0  0
    5.4042   -1.5000    0.0000 F   0  0  0  0  0  0  0  0  0  0  0  0
    3.9000   -2.9625    0.0000 C   0  0  0  0  0  0  0  0  0  0  0  0
    3.1750   -1.7250    0.0000 C   0  0  0  0  0  0  0  0  0  0  0  0
    2.4750   -2.9625    0.0000 C   0  0  0  0  0  0  0  0  0  0  0  0
    5.0000   -5.7250    0.0000 N   0  0  0  0  0  0  0  0  0  0  0  0
    1.7667   -5.8542    0.0000 C   0  0  0  0  0  0  0  0  0  0  0  0
    1.0542   -4.6167    0.0000 C   0  0  0  0  0  0  0  0  0  0  0  0
    3.1875   -3.3750    0.0000 C   0  0  0  0  0  0  0  0  0  0  0  0
    2.4667   -2.1417    0.0000 C   0  0  0  0  0  0  0  0  0  0  0  0
  2  1  2  0
  3  2  1  0
  4  1  1  0
  5 10  1  0
  6  4  1  0
  7  3  1  0
  8  1  1  0
  9  7  1  0
 10 17  1  0
 11 20  2  0
 12  8  2  0
 13  5  1  0
 14  5  1  0
 15  5  1  0
 16 22  1  0
 17 23  2  0
 18  9  1  0
 19  8  1  0
 20  6  1  0
 21  7  2  0
 22 18  2  0
 23 18  1  0
  3  6  2  0
 21 11  1  0
 16 10  2  0
M  END

> <chembl_id>
CHEMBL6542

> <chembl_pref_name>
None

$$$$

     RDKit          2D

 15 17  0  0  0  0  0  0  0  0999 V2000
   -0.8708    0.4000    0.0000 N   0  0  0  0  0  0  0  0  0  0  0  0
   -1.6625    0.6333    0.0000 C   0  0  0  0  0  0  0  0  0  0  0  0
   -1.6750    1.4583    0.0000 C   0  0  0  0  0  0  0  0  0  0  0  0
   -0.4083    1.0708    0.0000 C   0  0  0  0  0  0  0  0  0  0  0  0
   -0.8958    1.7333    0.0000 C   0  0  0  0  0  0  0  0  0  0  0  0
   -2.3625    0.2083    0.0000 C   0  0  0  0  0  0  0  0  0  0  0  0
   -2.4000    1.8500    0.0000 C   0  0  0  0  0  0  0  0  0  0  0  0
    0.7542    1.9250    0.0000 N   0  0  0  0  0  0  0  0  0  0  0  0
   -3.0958    0.6083    0.0000 C   0  0  0  0  0  0  0  0  0  0  0  0
   -3.1083    1.4208    0.0000 C   0  0  0  0  0  0  0  0  0  0  0  0
    0.4167    1.1708    0.0000 C   0  0  0  0  0  0  0  0  0  0  0  0
   -0.5750    2.4958    0.0000 C   0  0  0  0  0  0  0  0  0  0  0  0
   -3.7958    0.1750    0.0000 O   0  0  0  0  0  0  0  0  0  0  0  0
    0.2417    2.5958    0.0000 C   0  0  0  0  0  0  0  0  0  0  0  0
   -3.7833   -0.6500    0.0000 C   0  0  0  0  0  0  0  0  0  0  0  0
  2  1  1  0
  3  2  1  0
  4  1  1  0
  5  4  2  0
  6  2  2  0
  7  3  2  0
  8 11  2  0
  9  6  1  0
 10  9  2  0
 11  4  1  0
 12  5  1  0
 13  9  1  0
 14  8  1  0
 15 13  1  0
  3  5  1  0
 12 14  2  0
 10  7  1  0
M  END

> <chembl_id>
CHEMBL6470

> <chembl_pref_name>
None

$$$$

     RDKit          2D

 28 30  0  0  0  0  0  0  0  0999 V2000
    6.7417   -3.3167    0.0000 C   0  0  0  0  0  0  0  0  0  0  0  0
    6.7500   -4.1417    0.0000 N   0  0  0  0  0  0  0  0  0  0  0  0
    5.3167   -4.1500    0.0000 C   0  0  0  0  0  0  0  0  0  0  0  0
    6.0375   -4.5625    0.0000 C   0  0  0  0  0  0  0  0  0  0  0  0
    6.0292   -2.9042    0.0000 N   0  0  0  0  0  0  0  0  0  0  0  0
    5.3167   -3.3250    0.0000 C   0  0  0  0  0  0  0  0  0  0  0  0
    7.4542   -2.9000    0.0000 N   0  0  0  0  0  0  0  0  0  0  0  0
    4.6042   -4.5667    0.0000 C   0  0  0  0  0  0  0  0  0  0  0  0
    4.6042   -2.9125    0.0000 C   0  0  0  0  0  0  0  0  0  0  0  0
    9.5917   -1.6542    0.0000 C   0  0  0  0  0  0  0  0  0  0  0  0
    3.8917   -4.1542    0.0000 C   0  0  0  0  0  0  0  0  0  0  0  0
    3.8917   -3.3292    0.0000 C   0  0  0  0  0  0  0  0  0  0  0  0
    7.4500   -2.0750    0.0000 C   0  0  0  0  0  0  0  0  0  0  0  0
    8.1667   -3.3125    0.0000 C   0  0  0  0  0  0  0  0  0  0  0  0
    8.8792   -2.0667    0.0000 C   0  0  0  0  0  0  0  0  0  0  0  0
   10.3042   -2.0667    0.0000 O   0  0  0  0  0  0  0  0  0  0  0  0
    6.0375   -5.3875    0.0000 N   0  0  0  0  0  0  0  0  0  0  0  0
    8.8792   -2.8917    0.0000 C   0  0  0  0  0  0  0  0  0  0  0  0
    8.1625   -1.6625    0.0000 C   0  0  0  0  0  0  0  0  0  0  0  0
    9.5917   -0.8292    0.0000 N   0  0  0  0  0  0  0  0  0  0  0  0
    3.1750   -4.5667    0.0000 O   0  0  0  0  0  0  0  0  0  0  0  0
    3.1792   -2.9167    0.0000 O   0  0  0  0  0  0  0  0  0  0  0  0
    8.1542    0.8125    0.0000 O   0  0  0  0  0  0  0  0  0  0  0  0
    8.8792   -0.4167    0.0000 C   0  0  0  0  0  0  0  0  0  0  0  0
    8.8750    0.4083    0.0000 C   0  0  0  0  0  0  0  0  0  0  0  0
    3.1792   -2.0917    0.0000 C   0  0  0  0  0  0  0  0  0  0  0  0
    3.1750   -5.3917    0.0000 C   0  0  0  0  0  0  0  0  0  0  0  0
    8.1542    1.6375    0.0000 C   0  0  0  0  0  0  0  0  0  0  0  0
  2  1  1  0
  3  6  1  0
  4  2  2  0
  5  1  2  0
  6  5  1  0
  7  1  1  0
  8  3  2  0
  9  6  2  0
 10 15  1  0
 11 12  2  0
 12  9  1  0
 13  7  1  0
 14  7  1  0
 15 18  1  0
 16 10  2  0
 17  4  1  0
 18 14  1  0
 19 13  1  0
 20 10  1  0
 21 11  1  0
 22 12  1  0
 23 25  1  0
 24 20  1  0
 25 24  1  0
 26 22  1  0
 27 21  1  0
 28 23  1  0
  4  3  1  0
 19 15  1  0
 11  8  1  0
M  END

> <chembl_id>
CHEMBL267164

> <chembl_pref_name>
None

$$$$

     RDKit          2D

 28 30  0  0  0  0  0  0  0  0999 V2000
    6.8417   -7.0417    0.0000 C   0  0  0  0  0  0  0  0  0  0  0  0
    6.8500   -7.8750    0.0000 N   0  0  0  0  0  0  0  0  0  0  0  0
    5.4167   -7.8792    0.0000 C   0  0  0  0  0  0  0  0  0  0  0  0
    6.1375   -8.2917    0.0000 C   0  0  0  0  0  0  0  0  0  0  0  0
    6.1292   -6.6375    0.0000 N   0  0  0  0  0  0  0  0  0  0  0  0
    5.4167   -7.0542    0.0000 C   0  0  0  0  0  0  0  0  0  0  0  0
    7.5542   -6.6292    0.0000 N   0  0  0  0  0  0  0  0  0  0  0  0
    8.2625   -5.3917    0.0000 C   0  0  0  0  0  0  0  0  0  0  0  0
    8.2625   -4.5667    0.0000 C   0  0  0  0  0  0  0  0  0  0  0  0
    4.7042   -8.2917    0.0000 C   0  0  0  0  0  0  0  0  0  0  0  0
    4.7042   -6.6417    0.0000 C   0  0  0  0  0  0  0  0  0  0  0  0
    7.5500   -5.8042    0.0000 C   0  0  0  0  0  0  0  0  0  0  0  0
    3.9917   -7.8792    0.0000 C   0  0  0  0  0  0  0  0  0  0  0  0
    3.9917   -7.0542    0.0000 C   0  0  0  0  0  0  0  0  0  0  0  0
    7.5417   -4.1542    0.0000 N   0  0  0  0  0  0  0  0  0  0  0  0
    8.9750   -4.1500    0.0000 O   0  0  0  0  0  0  0  0  0  0  0  0
    6.1375   -9.1167    0.0000 N   0  0  0  0  0  0  0  0  0  0  0  0
    8.2667   -7.0417    0.0000 C   0  0  0  0  0  0  0  0  0  0  0  0
    8.9792   -5.8000    0.0000 C   0  0  0  0  0  0  0  0  0  0  0  0
    3.2750   -8.2917    0.0000 O   0  0  0  0  0  0  0  0  0  0  0  0
    3.2792   -6.6417    0.0000 O   0  0  0  0  0  0  0  0  0  0  0  0
    8.9792   -6.6250    0.0000 C   0  0  0  0  0  0  0  0  0  0  0  0
    7.5417   -3.3292    0.0000 C   0  0  0  0  0  0  0  0  0  0  0  0
    6.8292   -4.5667    0.0000 C   0  0  0  0  0  0  0  0  0  0  0  0
    3.2792   -5.8167    0.0000 C   0  0  0  0  0  0  0  0  0  0  0  0
    3.2750   -9.1167    0.0000 C   0  0  0  0  0  0  0  0  0  0  0  0
    6.1167   -4.1542    0.0000 C   0  0  0  0  0  0  0  0  0  0  0  0
    6.8292   -2.9167    0.0000 C   0  0  0  0  0  0  0  0  0  0  0  0
  2  1  1  0
  3  6  1  0
  4  2  2  0
  5  1  2  0
  6  5  1  0
  7  1  1  0
  8 12  1  0
  9  8  1  0
 10  3  2  0
 11  6  2  0
 12  7  1  0
 13 14  2  0
 14 11  1  0
 15  9  1  0
 16  9  2  0
 17  4  1  0
 18  7  1  0
 19 22  1  0
 20 13  1  0
 21 14  1  0
 22 18  1  0
 23 15  1  0
 24 15  1  0
 25 21  1  0
 26 20  1  0
 27 24  1  0
 28 23  1  0
  4  3  1  0
 19  8  1  0
 13 10  1  0
M  END

> <chembl_id>
CHEMBL6831

> <chembl_pref_name>
None

$$$$

     RDKit          2D

 32 35  0  0  0  0  0  0  0  0999 V2000
    1.5875   -3.5625    0.0000 C   0  0  0  0  0  0  0  0  0  0  0  0
    2.2875   -3.9750    0.0000 C   0  0  0  0  0  0  0  0  0  0  0  0
    0.8792   -3.9625    0.0000 N   0  0  0  0  0  0  0  0  0  0  0  0
    1.5750   -5.2000    0.0000 N   0  0  0  0  0  0  0  0  0  0  0  0
    2.2875   -4.7917    0.0000 C   0  0  0  0  0  0  0  0  0  0  0  0
    0.8667   -4.7875    0.0000 C   0  0  0  0  0  0  0  0  0  0  0  0
    8.7542   -0.9875    0.0000 N   0  0  0  0  0  0  0  0  0  0  0  0
    9.4167   -1.4667    0.0000 C   0  0  0  0  0  0  0  0  0  0  0  0
    8.0000   -2.3000    0.0000 C   0  0  0  0  0  0  0  0  0  0  0  0
    5.1500   -3.9542    0.0000 N   0  0  0  0  0  0  0  0  0  0  0  0
    5.8417   -5.2250    0.0000 C   0  0  0  0  0  0  0  0  0  0  0  0
    8.7125   -2.7042    0.0000 N   0  0  0  0  0  0  0  0  0  0  0  0
    6.5500   -5.6667    0.0000 C   0  0  0  0  0  0  0  0  0  0  0  0
    9.8375   -0.1875    0.0000 S   0  0  0  0  0  0  0  0  0  0  0  0
    9.0125   -0.1917    0.0000 C   0  0  0  0  0  0  0  0  0  0  0  0
    3.0000   -3.5500    0.0000 C   0  0  0  0  0  0  0  0  0  0  0  0
    7.2875   -2.7125    0.0000 C   0  0  0  0  0  0  0  0  0  0  0  0
    5.8625   -3.5417    0.0000 C   0  0  0  0  0  0  0  0  0  0  0  0
    1.5875   -2.7375    0.0000 O   0  0  0  0  0  0  0  0  0  0  0  0
   10.0792   -0.9750    0.0000 C   0  0  0  0  0  0  0  0  0  0  0  0
    4.4292   -3.5500    0.0000 C   0  0  0  0  0  0  0  0  0  0  0  0
    3.7167   -3.9625    0.0000 C   0  0  0  0  0  0  0  0  0  0  0  0
    7.9917   -1.4750    0.0000 O   0  0  0  0  0  0  0  0  0  0  0  0
    3.0000   -5.2042    0.0000 C   0  0  0  0  0  0  0  0  0  0  0  0
    9.4250   -2.2917    0.0000 C   0  0  0  0  0  0  0  0  0  0  0  0
    6.5625   -2.3042    0.0000 C   0  0  0  0  0  0  0  0  0  0  0  0
    7.2875   -3.5375    0.0000 C   0  0  0  0  0  0  0  0  0  0  0  0
    5.8500   -2.7250    0.0000 C   0  0  0  0  0  0  0  0  0  0  0  0
    6.5750   -3.9542    0.0000 C   0  0  0  0  0  0  0  0  0  0  0  0
    5.1500   -4.7792    0.0000 C   0  0  0  0  0  0  0  0  0  0  0  0
    3.7167   -4.7917    0.0000 C   0  0  0  0  0  0  0  0  0  0  0  0
    0.1542   -5.1917    0.0000 C   0  0  0  0  0  0  0  0  0  0  0  0
  2  1  1  0
  3  1  2  0
  4  6  2  0
  5  2  2  0
  6  3  1  0
  7  8  1  0
  8 25  1  0
  9 17  1  0
 10 21  1  0
 11 30  1  0
 12  9  1  0
 13 11  3  0
 14 20  1  0
 15  7  2  0
 16  2  1  0
 17 27  2  0
 18 10  1  0
 19  1  1  0
 20  8  2  0
 21 22  1  0
 22 16  2  0
 23  9  2  0
 24  5  1  0
 25 12  1  0
 26 28  2  0
 27 29  1  0
 28 18  1  0
 29 18  2  0
 30 10  1  0
 31 22  1  0
 32  6  1  0
  5  4  1  0
 24 31  2  0
 26 17  1  0
 14 15  1  0
M  END

> <chembl_id>
CHEMBL269342

> <chembl_pref_name>
None

$$$$

     RDKit          2D

 32 35  0  0  0  0  0  0  0  0999 V2000
    1.5875   -3.5542    0.0000 C   0  0  0  0  0  0  0  0  0  0  0  0
    2.2917   -3.9667    0.0000 C   0  0  0  0  0  0  0  0  0  0  0  0
    0.8750   -3.9625    0.0000 N   0  0  0  0  0  0  0  0  0  0  0  0
    1.5792   -5.2000    0.0000 N   0  0  0  0  0  0  0  0  0  0  0  0
    2.2917   -4.7875    0.0000 C   0  0  0  0  0  0  0  0  0  0  0  0
    0.8667   -4.7792    0.0000 C   0  0  0  0  0  0  0  0  0  0  0  0
    8.0000   -2.2917    0.0000 C   0  0  0  0  0  0  0  0  0  0  0  0
    9.4167   -1.4625    0.0000 C   0  0  0  0  0  0  0  0  0  0  0  0
    5.1500   -3.9500    0.0000 N   0  0  0  0  0  0  0  0  0  0  0  0
    5.8417   -5.2167    0.0000 C   0  0  0  0  0  0  0  0  0  0  0  0
    8.7125   -2.7000    0.0000 N   0  0  0  0  0  0  0  0  0  0  0  0
    6.5417   -5.6625    0.0000 C   0  0  0  0  0  0  0  0  0  0  0  0
    3.0042   -3.5500    0.0000 C   0  0  0  0  0  0  0  0  0  0  0  0
    9.8250   -0.1917    0.0000 S   0  0  0  0  0  0  0  0  0  0  0  0
    7.2875   -2.7125    0.0000 C   0  0  0  0  0  0  0  0  0  0  0  0
    5.8625   -3.5375    0.0000 C   0  0  0  0  0  0  0  0  0  0  0  0
    1.5917   -2.7292    0.0000 O   0  0  0  0  0  0  0  0  0  0  0  0
   10.0792   -0.9750    0.0000 C   0  0  0  0  0  0  0  0  0  0  0  0
    4.4292   -3.5417    0.0000 C   0  0  0  0  0  0  0  0  0  0  0  0
    8.7500   -0.9875    0.0000 C   0  0  0  0  0  0  0  0  0  0  0  0
    3.7167   -3.9625    0.0000 C   0  0  0  0  0  0  0  0  0  0  0  0
    9.0000   -0.2000    0.0000 C   0  0  0  0  0  0  0  0  0  0  0  0
    7.9917   -1.4667    0.0000 O   0  0  0  0  0  0  0  0  0  0  0  0
    3.0042   -5.2000    0.0000 C   0  0  0  0  0  0  0  0  0  0  0  0
    9.4250   -2.2875    0.0000 C   0  0  0  0  0  0  0  0  0  0  0  0
    6.5667   -2.3000    0.0000 C   0  0  0  0  0  0  0  0  0  0  0  0
    7.2875   -3.5375    0.0000 C   0  0  0  0  0  0  0  0  0  0  0  0
    5.8542   -2.7167    0.0000 C   0  0  0  0  0  0  0  0  0  0  0  0
    6.5750   -3.9500    0.0000 C   0  0  0  0  0  0  0  0  0  0  0  0
    5.1500   -4.7750    0.0000 C   0  0  0  0  0  0  0  0  0  0  0  0
    3.7167   -4.7875    0.0000 C   0  0  0  0  0  0  0  0  0  0  0  0
    0.1542   -5.1875    0.0000 C   0  0  0  0  0  0  0  0  0  0  0  0
  2  1  1  0
  3  1  2  0
  4  6  2  0
  5  2  2  0
  6  3  1  0
  7 15  1  0
  8 25  1  0
  9 19  1  0
 10 30  1  0
 11  7  1  0
 12 10  3  0
 13  2  1  0
 14 18  1  0
 15 27  2  0
 16  9  1  0
 17  1  1  0
 18  8  2  0
 19 21  1  0
 20  8  1  0
 21 13  2  0
 22 20  2  0
 23  7  2  0
 24  5  1  0
 25 11  1  0
 26 28  2  0
 27 29  1  0
 28 16  1  0
 29 16  2  0
 30  9  1  0
 31 21  1  0
 32  6  1  0
  4  5  1  0
 31 24  2  0
 15 26  1  0
 22 14  1  0
M  END

> <chembl_id>
CHEMBL6317

> <chembl_pref_name>
None

$$$$

     RDKit          2D

 30 32  0  0  0  0  0  0  0  0999 V2000
    3.8125   -6.6042    0.0000 C   0  0  0  0  0  0  0  0  0  0  0  0
    3.8167   -7.4375    0.0000 N   0  0  0  0  0  0  0  0  0  0  0  0
    2.3792   -7.4417    0.0000 C   0  0  0  0  0  0  0  0  0  0  0  0
    3.1042   -7.8542    0.0000 C   0  0  0  0  0  0  0  0  0  0  0  0
    3.0917   -6.2000    0.0000 N   0  0  0  0  0  0  0  0  0  0  0  0
    2.3792   -6.6167    0.0000 C   0  0  0  0  0  0  0  0  0  0  0  0
    4.5250   -6.1917    0.0000 N   0  0  0  0  0  0  0  0  0  0  0  0
    1.6667   -7.8542    0.0000 C   0  0  0  0  0  0  0  0  0  0  0  0
    1.6667   -6.2042    0.0000 C   0  0  0  0  0  0  0  0  0  0  0  0
    0.9542   -7.4417    0.0000 C   0  0  0  0  0  0  0  0  0  0  0  0
    0.9542   -6.6167    0.0000 C   0  0  0  0  0  0  0  0  0  0  0  0
    7.3750   -3.7042    0.0000 C   0  0  0  0  0  0  0  0  0  0  0  0
    4.5167   -5.3667    0.0000 C   0  0  0  0  0  0  0  0  0  0  0  0
    5.2375   -6.6042    0.0000 C   0  0  0  0  0  0  0  0  0  0  0  0
    7.3667   -2.8792    0.0000 O   0  0  0  0  0  0  0  0  0  0  0  0
    3.1042   -8.6792    0.0000 N   0  0  0  0  0  0  0  0  0  0  0  0
    8.0875   -4.1167    0.0000 N   0  0  0  0  0  0  0  0  0  0  0  0
    6.6542   -4.1250    0.0000 C   0  0  0  0  0  0  0  0  0  0  0  0
    0.2417   -7.8542    0.0000 O   0  0  0  0  0  0  0  0  0  0  0  0
    0.2417   -6.2042    0.0000 O   0  0  0  0  0  0  0  0  0  0  0  0
    5.9500   -6.1875    0.0000 C   0  0  0  0  0  0  0  0  0  0  0  0
    5.2292   -4.9542    0.0000 C   0  0  0  0  0  0  0  0  0  0  0  0
    5.9500   -5.3625    0.0000 C   0  0  0  0  0  0  0  0  0  0  0  0
    6.6625   -4.9500    0.0000 C   0  0  0  0  0  0  0  0  0  0  0  0
    8.8000   -3.7042    0.0000 C   0  0  0  0  0  0  0  0  0  0  0  0
    0.2417   -8.6792    0.0000 C   0  0  0  0  0  0  0  0  0  0  0  0
    0.2417   -5.3792    0.0000 C   0  0  0  0  0  0  0  0  0  0  0  0
    9.5167   -4.1167    0.0000 C   0  0  0  0  0  0  0  0  0  0  0  0
   10.2292   -3.7042    0.0000 C   0  0  0  0  0  0  0  0  0  0  0  0
   10.9417   -4.1125    0.0000 C   0  0  0  0  0  0  0  0  0  0  0  0
  2  1  1  0
  3  6  1  0
  4  2  2  0
  5  1  2  0
  6  5  1  0
  7  1  1  0
  8  3  2  0
  9  6  2  0
 10 11  2  0
 11  9  1  0
 12 18  1  0
 13  7  1  0
 14  7  1  0
 15 12  2  0
 16  4  1  0
 17 12  1  0
 18 24  1  0
 19 10  1  0
 20 11  1  0
 21 14  1  0
 22 13  1  0
 23 21  1  0
 24 23  1  0
 25 17  1  0
 26 19  1  0
 27 20  1  0
 28 25  1  0
 29 28  1  0
 30 29  1  0
  4  3  1  0
 23 22  1  0
 10  8  1  0
M  END

> <chembl_id>
CHEMBL267457

> <chembl_pref_name>
None

$$$$

     RDKit          2D

 24 26  0  0  0  0  0  0  0  0999 V2000
    4.4125   -4.0917    0.0000 S   0  0  0  0  0  0  0  0  0  0  0  0
    5.8417   -4.0875    0.0000 C   0  0  0  0  0  0  0  0  0  0  0  0
    5.1292   -4.4917    0.0000 N   0  0  0  0  0  0  0  0  0  0  0  0
    6.5917   -4.4042    0.0000 C   0  0  0  0  0  0  0  0  0  0  0  0
    6.7167   -3.0750    0.0000 N   0  0  0  0  0  0  0  0  0  0  0  0
    4.4125   -3.2667    0.0000 C   0  0  0  0  0  0  0  0  0  0  0  0
    5.9042   -3.2542    0.0000 O   0  0  0  0  0  0  0  0  0  0  0  0
    3.7000   -2.8500    0.0000 C   0  0  0  0  0  0  0  0  0  0  0  0
    3.7000   -2.0167    0.0000 C   0  0  0  0  0  0  0  0  0  0  0  0
    7.1417   -3.7917    0.0000 C   0  0  0  0  0  0  0  0  0  0  0  0
    2.9792   -1.6125    0.0000 C   0  0  0  0  0  0  0  0  0  0  0  0
    3.5875   -4.0875    0.0000 O   0  0  0  0  0  0  0  0  0  0  0  0
    4.4125   -4.9167    0.0000 O   0  0  0  0  0  0  0  0  0  0  0  0
    2.9792   -0.7792    0.0000 N   0  0  0  0  0  0  0  0  0  0  0  0
    6.7667   -5.2167    0.0000 C   0  0  0  0  0  0  0  0  0  0  0  0
    5.1292   -2.8500    0.0000 C   0  0  0  0  0  0  0  0  0  0  0  0
    4.4125   -1.6125    0.0000 C   0  0  0  0  0  0  0  0  0  0  0  0
    2.9792   -3.2667    0.0000 C   0  0  0  0  0  0  0  0  0  0  0  0
    2.2750   -2.0167    0.0000 C   0  0  0  0  0  0  0  0  0  0  0  0
    2.2750   -2.8500    0.0000 C   0  0  0  0  0  0  0  0  0  0  0  0
    5.1292   -2.0167    0.0000 C   0  0  0  0  0  0  0  0  0  0  0  0
    7.9625   -3.8667    0.0000 C   0  0  0  0  0  0  0  0  0  0  0  0
    2.2542   -0.3667    0.0000 C   0  0  0  0  0  0  0  0  0  0  0  0
    3.7000   -0.3667    0.0000 C   0  0  0  0  0  0  0  0  0  0  0  0
  2  3  1  0
  3  1  1  0
  4  2  2  0
  5  7  1  0
  6  1  1  0
  7  2  1  0
  8  6  1  0
  9  8  2  0
 10  4  1  0
 11  9  1  0
 12  1  2  0
 13  1  2  0
 14 11  1  0
 15  4  1  0
 16  6  2  0
 17 21  2  0
 18  8  1  0
 19 20  1  0
 20 18  2  0
 21 16  1  0
 22 10  1  0
 23 14  1  0
 24 14  1  0
 17  9  1  0
  5 10  2  0
 19 11  2  0
M  END

> <chembl_id>
CHEMBL267458

> <chembl_pref_name>
BMS-182874

$$$$

     RDKit          2D

 31 34  0  0  0  0  0  0  0  0999 V2000
    3.9875   -3.6875    0.0000 C   0  0  0  0  0  0  0  0  0  0  0  0
    3.2750   -3.2667    0.0000 C   0  0  0  0  0  0  0  0  0  0  0  0
    4.6917   -3.2792    0.0000 C   0  0  0  0  0  0  0  0  0  0  0  0
    3.9792   -4.5042    0.0000 C   0  0  0  0  0  0  0  0  0  0  0  0
    8.9667   -2.4500    0.0000 N   0  0  0  0  0  0  0  0  0  0  0  0
    3.2792   -2.4542    0.0000 C   0  0  0  0  0  0  0  0  0  0  0  0
    5.4042   -3.6917    0.0000 C   0  0  0  0  0  0  0  0  0  0  0  0
    3.2667   -4.9167    0.0000 C   0  0  0  0  0  0  0  0  0  0  0  0
    4.6875   -4.9250    0.0000 C   0  0  0  0  0  0  0  0  0  0  0  0
    4.6875   -2.4625    0.0000 C   0  0  0  0  0  0  0  0  0  0  0  0
    3.9750   -6.1542    0.0000 C   0  0  0  0  0  0  0  0  0  0  0  0
    6.1125   -2.4542    0.0000 C   0  0  0  0  0  0  0  0  0  0  0  0
    3.2667   -5.7417    0.0000 C   0  0  0  0  0  0  0  0  0  0  0  0
    4.6792   -5.7500    0.0000 C   0  0  0  0  0  0  0  0  0  0  0  0
    6.1167   -3.2792    0.0000 C   0  0  0  0  0  0  0  0  0  0  0  0
    5.3917   -2.0500    0.0000 C   0  0  0  0  0  0  0  0  0  0  0  0
    3.9792   -6.9750    0.0000 I   0  0  0  0  0  0  0  0  0  0  0  0
    2.5625   -3.6750    0.0000 C   0  0  0  0  0  0  0  0  0  0  0  0
    6.8250   -2.0417    0.0000 O   0  0  0  0  0  0  0  0  0  0  0  0
    8.2542   -2.0375    0.0000 C   0  0  0  0  0  0  0  0  0  0  0  0
    7.5375   -2.4500    0.0000 C   0  0  0  0  0  0  0  0  0  0  0  0
    9.1417   -3.2542    0.0000 C   0  0  0  0  0  0  0  0  0  0  0  0
    9.6792   -2.0375    0.0000 C   0  0  0  0  0  0  0  0  0  0  0  0
    2.5750   -2.0167    0.0000 C   0  0  0  0  0  0  0  0  0  0  0  0
    4.0000   -2.0750    0.0000 C   0  0  0  0  0  0  0  0  0  0  0  0
    2.5625   -4.4917    0.0000 C   0  0  0  0  0  0  0  0  0  0  0  0
    9.9750   -3.3375    0.0000 C   0  0  0  0  0  0  0  0  0  0  0  0
   10.2917   -2.5875    0.0000 C   0  0  0  0  0  0  0  0  0  0  0  0
    4.0292   -1.2417    0.0000 C   0  0  0  0  0  0  0  0  0  0  0  0
    2.6000   -1.1917    0.0000 C   0  0  0  0  0  0  0  0  0  0  0  0
    3.3292   -0.8125    0.0000 C   0  0  0  0  0  0  0  0  0  0  0  0
  2  1  2  0
  3  1  1  0
  4  1  1  0
  5 20  1  0
  6  2  1  0
  7  3  2  0
  8  4  2  0
  9  4  1  0
 10  3  1  0
 11 14  1  0
 12 16  1  0
 13  8  1  0
 14  9  2  0
 15  7  1  0
 16 10  2  0
 17 11  1  0
 18  2  1  0
 19 12  1  0
 20 21  1  0
 21 19  1  0
 22  5  1  0
 23  5  1  0
 24  6  2  0
 25  6  1  0
 26 18  1  0
 27 22  1  0
 28 23  1  0
 29 25  2  0
 30 24  1  0
 31 29  1  0
 11 13  2  0
 12 15  2  0
 30 31  2  0
 28 27  1  0
M  END

> <chembl_id>
CHEMBL6318

> <chembl_pref_name>
IDOXIFENE

$$$$

     RDKit          2D

 34 37  0  0  0  0  0  0  0  0999 V2000
    0.9042   -3.3042    0.0000 C   0  0  0  0  0  0  0  0  0  0  0  0
    0.1917   -2.9167    0.0000 C   0  0  0  0  0  0  0  0  0  0  0  0
    0.9292   -4.1292    0.0000 C   0  0  0  0  0  0  0  0  0  0  0  0
    1.6042   -2.8667    0.0000 C   0  0  0  0  0  0  0  0  0  0  0  0
    7.9417   -1.3792    0.0000 N   0  0  0  0  0  0  0  0  0  0  0  0
    0.1625   -2.0875    0.0000 C   0  0  0  0  0  0  0  0  0  0  0  0
    1.6542   -4.5042    0.0000 C   0  0  0  0  0  0  0  0  0  0  0  0
    1.5792   -2.0542    0.0000 C   0  0  0  0  0  0  0  0  0  0  0  0
    2.3375   -3.2625    0.0000 C   0  0  0  0  0  0  0  0  0  0  0  0
    0.2375   -4.5625    0.0000 C   0  0  0  0  0  0  0  0  0  0  0  0
    0.9917   -5.7667    0.0000 C   0  0  0  0  0  0  0  0  0  0  0  0
    3.0042   -2.0042    0.0000 C   0  0  0  0  0  0  0  0  0  0  0  0
    0.2542   -5.3792    0.0000 C   0  0  0  0  0  0  0  0  0  0  0  0
    1.6875   -5.3375    0.0000 C   0  0  0  0  0  0  0  0  0  0  0  0
    3.0417   -2.8250    0.0000 C   0  0  0  0  0  0  0  0  0  0  0  0
    2.2875   -1.6167    0.0000 C   0  0  0  0  0  0  0  0  0  0  0  0
    1.0167   -6.6042    0.0000 I   0  0  0  0  0  0  0  0  0  0  0  0
   -0.5125   -3.3500    0.0000 C   0  0  0  0  0  0  0  0  0  0  0  0
    3.7000   -1.5750    0.0000 O   0  0  0  0  0  0  0  0  0  0  0  0
    7.2542   -1.8250    0.0000 C   0  0  0  0  0  0  0  0  0  0  0  0
    8.7125   -1.6792    0.0000 C   0  0  0  0  0  0  0  0  0  0  0  0
    7.9917   -0.5542    0.0000 C   0  0  0  0  0  0  0  0  0  0  0  0
    0.8625   -1.6542    0.0000 C   0  0  0  0  0  0  0  0  0  0  0  0
   -0.5708   -1.6875    0.0000 C   0  0  0  0  0  0  0  0  0  0  0  0
    4.4167   -1.9542    0.0000 C   0  0  0  0  0  0  0  0  0  0  0  0
    6.5292   -1.4500    0.0000 C   0  0  0  0  0  0  0  0  0  0  0  0
   -0.4875   -4.1667    0.0000 C   0  0  0  0  0  0  0  0  0  0  0  0
    5.1167   -1.5125    0.0000 C   0  0  0  0  0  0  0  0  0  0  0  0
    5.8417   -1.8917    0.0000 C   0  0  0  0  0  0  0  0  0  0  0  0
    8.7875   -0.3417    0.0000 C   0  0  0  0  0  0  0  0  0  0  0  0
    9.2292   -1.0417    0.0000 C   0  0  0  0  0  0  0  0  0  0  0  0
   -0.5958   -0.8750    0.0000 C   0  0  0  0  0  0  0  0  0  0  0  0
    0.8375   -0.8292    0.0000 C   0  0  0  0  0  0  0  0  0  0  0  0
    0.1125   -0.4375    0.0000 C   0  0  0  0  0  0  0  0  0  0  0  0
  2  1  2  0
  3  1  1  0
  4  1  1  0
  5 20  1  0
  6  2  1  0
  7  3  1  0
  8  4  1  0
  9  4  2  0
 10  3  2  0
 11 13  2  0
 12 15  2  0
 13 10  1  0
 14  7  2  0
 15  9  1  0
 16  8  2  0
 17 11  1  0
 18  2  1  0
 19 12  1  0
 20 26  1  0
 21  5  1  0
 22  5  1  0
 23  6  1  0
 24  6  2  0
 25 19  1  0
 26 29  1  0
 27 18  1  0
 28 25  1  0
 29 28  1  0
 30 22  1  0
 31 21  1  0
 32 24  1  0
 33 23  2  0
 34 32  2  0
 12 16  1  0
 14 11  1  0
 34 33  1  0
 31 30  1  0
M  END

> <chembl_id>
CHEMBL268389

> <chembl_pref_name>
None

$$$$

     RDKit          2D

 39 42  0  0  0  0  0  0  0  0999 V2000
    0.1917   -3.4542    0.0000 C   0  0  0  0  0  0  0  0  0  0  0  0
   -0.5208   -3.0667    0.0000 C   0  0  0  0  0  0  0  0  0  0  0  0
    0.2042   -4.2792    0.0000 C   0  0  0  0  0  0  0  0  0  0  0  0
    0.9000   -3.0292    0.0000 C   0  0  0  0  0  0  0  0  0  0  0  0
   10.8167   -1.8417    0.0000 N   0  0  0  0  0  0  0  0  0  0  0  0
   -0.5375   -2.2292    0.0000 C   0  0  0  0  0  0  0  0  0  0  0  0
    0.9250   -4.6792    0.0000 C   0  0  0  0  0  0  0  0  0  0  0  0
    0.8875   -2.2167    0.0000 C   0  0  0  0  0  0  0  0  0  0  0  0
    1.6250   -3.4292    0.0000 C   0  0  0  0  0  0  0  0  0  0  0  0
   -0.4958   -4.7042    0.0000 C   0  0  0  0  0  0  0  0  0  0  0  0
    0.2417   -5.9292    0.0000 C   0  0  0  0  0  0  0  0  0  0  0  0
    2.3042   -2.1917    0.0000 C   0  0  0  0  0  0  0  0  0  0  0  0
   -0.4750   -5.5292    0.0000 C   0  0  0  0  0  0  0  0  0  0  0  0
    0.9500   -5.5042    0.0000 C   0  0  0  0  0  0  0  0  0  0  0  0
    2.3292   -3.0042    0.0000 C   0  0  0  0  0  0  0  0  0  0  0  0
    1.5917   -1.7917    0.0000 C   0  0  0  0  0  0  0  0  0  0  0  0
    0.2625   -6.7542    0.0000 I   0  0  0  0  0  0  0  0  0  0  0  0
   -1.2250   -3.4917    0.0000 C   0  0  0  0  0  0  0  0  0  0  0  0
    3.0042   -1.7667    0.0000 O   0  0  0  0  0  0  0  0  0  0  0  0
   10.0792   -1.4667    0.0000 C   0  0  0  0  0  0  0  0  0  0  0  0
   10.9500   -2.6542    0.0000 C   0  0  0  0  0  0  0  0  0  0  0  0
   11.5500   -1.4625    0.0000 C   0  0  0  0  0  0  0  0  0  0  0  0
    0.1667   -1.8042    0.0000 C   0  0  0  0  0  0  0  0  0  0  0  0
   -1.2625   -1.8167    0.0000 C   0  0  0  0  0  0  0  0  0  0  0  0
    3.7250   -2.1542    0.0000 C   0  0  0  0  0  0  0  0  0  0  0  0
    9.4000   -1.9167    0.0000 C   0  0  0  0  0  0  0  0  0  0  0  0
   -1.2125   -4.3042    0.0000 C   0  0  0  0  0  0  0  0  0  0  0  0
    4.4250   -1.7167    0.0000 C   0  0  0  0  0  0  0  0  0  0  0  0
    7.2542   -1.6167    0.0000 C   0  0  0  0  0  0  0  0  0  0  0  0
    7.9792   -1.9917    0.0000 C   0  0  0  0  0  0  0  0  0  0  0  0
    8.6667   -1.5417    0.0000 C   0  0  0  0  0  0  0  0  0  0  0  0
    5.1417   -2.1042    0.0000 C   0  0  0  0  0  0  0  0  0  0  0  0
    5.8417   -1.6792    0.0000 C   0  0  0  0  0  0  0  0  0  0  0  0
    6.5625   -2.0542    0.0000 C   0  0  0  0  0  0  0  0  0  0  0  0
   12.1375   -2.0417    0.0000 C   0  0  0  0  0  0  0  0  0  0  0  0
   11.7667   -2.7792    0.0000 C   0  0  0  0  0  0  0  0  0  0  0  0
    0.1542   -0.9792    0.0000 C   0  0  0  0  0  0  0  0  0  0  0  0
   -1.2750   -1.0042    0.0000 C   0  0  0  0  0  0  0  0  0  0  0  0
   -0.5625   -0.5792    0.0000 C   0  0  0  0  0  0  0  0  0  0  0  0
  2  1  2  0
  3  1  1  0
  4  1  1  0
  5 20  1  0
  6  2  1  0
  7  3  1  0
  8  4  1  0
  9  4  2  0
 10  3  2  0
 11 13  2  0
 12 15  2  0
 13 10  1  0
 14  7  2  0
 15  9  1  0
 16  8  2  0
 17 11  1  0
 18  2  1  0
 19 12  1  0
 20 26  1  0
 21  5  1  0
 22  5  1  0
 23  6  1  0
 24  6  2  0
 25 19  1  0
 26 31  1  0
 27 18  1  0
 28 25  1  0
 29 34  1  0
 30 29  1  0
 31 30  1  0
 32 28  1  0
 33 32  1  0
 34 33  1  0
 35 22  1  0
 36 21  1  0
 37 23  2  0
 38 24  1  0
 39 38  2  0
 12 16  1  0
 14 11  1  0
 39 37  1  0
 36 35  1  0
M  END

> <chembl_id>
CHEMBL6547

> <chembl_pref_name>
None

$$$$

     RDKit          2D

 23 26  0  0  0  0  0  0  0  0999 V2000
    7.5792   -4.6250    0.0000 N   0  0  0  0  0  0  0  0  0  0  0  0
    6.8667   -5.0375    0.0000 C   0  0  0  0  0  0  0  0  0  0  0  0
    6.1500   -4.6167    0.0000 C   0  0  0  0  0  0  0  0  0  0  0  0
    6.1542   -3.7917    0.0000 C   0  0  0  0  0  0  0  0  0  0  0  0
    6.8667   -3.3792    0.0000 C   0  0  0  0  0  0  0  0  0  0  0  0
    7.5792   -3.7917    0.0000 C   0  0  0  0  0  0  0  0  0  0  0  0
    7.5750   -6.2750    0.0000 N   0  0  0  0  0  0  0  0  0  0  0  0
    6.8625   -5.8542    0.0000 C   0  0  0  0  0  0  0  0  0  0  0  0
    6.8667   -2.5542    0.0000 C   0  0  0  0  0  0  0  0  0  0  0  0
    8.3000   -5.0375    0.0000 C   0  0  0  0  0  0  0  0  0  0  0  0
    6.1542   -2.1500    0.0000 C   0  0  0  0  0  0  0  0  0  0  0  0
    7.5792   -2.1417    0.0000 C   0  0  0  0  0  0  0  0  0  0  0  0
    8.2917   -5.8667    0.0000 C   0  0  0  0  0  0  0  0  0  0  0  0
    6.8667   -0.9042    0.0000 C   0  0  0  0  0  0  0  0  0  0  0  0
    6.1542   -1.3250    0.0000 C   0  0  0  0  0  0  0  0  0  0  0  0
    7.5792   -1.3167    0.0000 C   0  0  0  0  0  0  0  0  0  0  0  0
    5.4375   -5.0375    0.0000 C   0  0  0  0  0  0  0  0  0  0  0  0
    5.4375   -3.3792    0.0000 C   0  0  0  0  0  0  0  0  0  0  0  0
    6.8667   -0.0792    0.0000 O   0  0  0  0  0  0  0  0  0  0  0  0
    7.5667   -7.1000    0.0000 C   0  0  0  0  0  0  0  0  0  0  0  0
    7.5792    0.3333    0.0000 C   0  0  0  0  0  0  0  0  0  0  0  0
    4.7250   -4.6250    0.0000 C   0  0  0  0  0  0  0  0  0  0  0  0
    4.7250   -3.8000    0.0000 C   0  0  0  0  0  0  0  0  0  0  0  0
  2  1  1  0
  3  2  1  0
  4  5  1  0
  5  6  1  0
  6  1  1  0
  7 13  1  0
  8  2  1  0
  9  5  1  0
 10  1  1  0
 11  9  1  0
 12  9  2  0
 13 10  1  0
 14 16  2  0
 15 11  2  0
 16 12  1  0
 17  3  2  0
 18  4  2  0
 19 14  1  0
 20  7  1  0
 21 19  1  0
 22 17  1  0
 23 18  1  0
  8  7  1  0
  4  3  1  0
 14 15  1  0
 23 22  2  0
M  END

> <chembl_id>
CHEMBL6446

> <chembl_pref_name>
None

$$$$

     RDKit          2D

 42 46  0  0  0  0  0  0  0  0999 V2000
    2.8875  -13.9292    0.0000 C   0  0  0  0  0  0  0  0  0  0  0  0
    2.8917  -13.1042    0.0000 C   0  0  0  0  0  0  0  0  0  0  0  0
    4.3167  -13.9375    0.0000 C   0  0  0  0  0  0  0  0  0  0  0  0
   12.7042  -13.0917    0.0000 N   0  0  0  0  0  0  0  0  0  0  0  0
    3.6042  -12.6917    0.0000 O   0  0  0  0  0  0  0  0  0  0  0  0
   12.7000  -13.8125    0.0000 C   0  0  0  0  0  0  0  0  0  0  0  0
    2.1750  -14.3500    0.0000 C   0  0  0  0  0  0  0  0  0  0  0  0
   11.4625  -13.0792    0.0000 C   0  0  0  0  0  0  0  0  0  0  0  0
   12.0792  -12.7250    0.0000 C   0  0  0  0  0  0  0  0  0  0  0  0
    4.3167  -13.1042    0.0000 C   0  0  0  0  0  0  0  0  0  0  0  0
    1.4625  -13.9375    0.0000 C   0  0  0  0  0  0  0  0  0  0  0  0
   11.4542  -13.8042    0.0000 S   0  0  0  0  0  0  0  0  0  0  0  0
    2.1750  -12.6917    0.0000 C   0  0  0  0  0  0  0  0  0  0  0  0
    1.4625  -13.1125    0.0000 C   0  0  0  0  0  0  0  0  0  0  0  0
   10.7417  -12.6750    0.0000 C   0  0  0  0  0  0  0  0  0  0  0  0
    0.7417  -14.3417    0.0000 O   0  0  0  0  0  0  0  0  0  0  0  0
    5.0292  -14.3500    0.0000 C   0  0  0  0  0  0  0  0  0  0  0  0
   13.2792  -14.3917    0.0000 O   0  0  0  0  0  0  0  0  0  0  0  0
   12.0750  -12.0000    0.0000 O   0  0  0  0  0  0  0  0  0  0  0  0
   10.0292  -13.0875    0.0000 C   0  0  0  0  0  0  0  0  0  0  0  0
    5.7417  -13.9292    0.0000 N   0  0  0  0  0  0  0  0  0  0  0  0
    0.7375  -15.1667    0.0000 C   0  0  0  0  0  0  0  0  0  0  0  0
    8.6042  -13.9042    0.0000 C   0  0  0  0  0  0  0  0  0  0  0  0
    2.1792  -15.1750    0.0000 C   0  0  0  0  0  0  0  0  0  0  0  0
    5.0292  -13.5167    0.0000 C   0  0  0  0  0  0  0  0  0  0  0  0
    5.0375  -12.7000    0.0000 C   0  0  0  0  0  0  0  0  0  0  0  0
   10.0292  -13.9125    0.0000 C   0  0  0  0  0  0  0  0  0  0  0  0
    9.3125  -12.6750    0.0000 C   0  0  0  0  0  0  0  0  0  0  0  0
    2.1667  -11.8667    0.0000 C   0  0  0  0  0  0  0  0  0  0  0  0
    0.7500  -12.7000    0.0000 C   0  0  0  0  0  0  0  0  0  0  0  0
    9.3167  -14.3250    0.0000 C   0  0  0  0  0  0  0  0  0  0  0  0
    8.6042  -13.0875    0.0000 C   0  0  0  0  0  0  0  0  0  0  0  0
    0.0167  -15.5750    0.0000 C   0  0  0  0  0  0  0  0  0  0  0  0
    7.8917  -14.3167    0.0000 O   0  0  0  0  0  0  0  0  0  0  0  0
    7.1667  -13.9167    0.0000 C   0  0  0  0  0  0  0  0  0  0  0  0
    6.4625  -14.3375    0.0000 C   0  0  0  0  0  0  0  0  0  0  0  0
    5.7292  -13.1042    0.0000 C   0  0  0  0  0  0  0  0  0  0  0  0
   -0.6958  -15.1542    0.0000 C   0  0  0  0  0  0  0  0  0  0  0  0
    0.0125  -16.3917    0.0000 C   0  0  0  0  0  0  0  0  0  0  0  0
   -0.7000  -16.8042    0.0000 C   0  0  0  0  0  0  0  0  0  0  0  0
   -1.4083  -15.5542    0.0000 C   0  0  0  0  0  0  0  0  0  0  0  0
   -1.4208  -16.3875    0.0000 C   0  0  0  0  0  0  0  0  0  0  0  0
  2  1  1  0
  3  1  1  0
  4  9  1  0
  5  2  1  0
  6 12  1  0
  7  1  2  0
  8 15  2  0
  9  8  1  0
 10  3  1  0
 11  7  1  0
 12  8  1  0
 13  2  2  0
 14 11  2  0
 15 20  1  0
 16 11  1  0
 17  3  1  0
 18  6  2  0
 19  9  2  0
 20 28  1  0
 21 17  1  0
 22 16  1  0
 23 34  1  0
 24  7  1  0
 25 10  1  0
 26 10  1  0
 27 31  1  0
 28 32  2  0
 29 13  1  0
 30 14  1  0
 31 23  2  0
 32 23  1  0
 33 22  1  0
 34 35  1  0
 35 36  1  0
 36 21  1  0
 37 21  1  0
 38 33  2  0
 39 33  1  0
 40 39  2  0
 41 38  1  0
 42 40  1  0
  5 10  1  0
 14 13  1  0
 42 41  2  0
 20 27  2  0
  4  6  1  0
M  END

> <chembl_id>
CHEMBL6605

> <chembl_pref_name>
None

$$$$

     RDKit          2D

 23 25  0  0  0  0  0  0  0  0999 V2000
    4.5042   -4.0792    0.0000 S   0  0  0  0  0  0  0  0  0  0  0  0
    5.2167   -4.5042    0.0000 N   0  0  0  0  0  0  0  0  0  0  0  0
    4.5042   -3.2667    0.0000 C   0  0  0  0  0  0  0  0  0  0  0  0
    3.7792   -2.8542    0.0000 C   0  0  0  0  0  0  0  0  0  0  0  0
    3.7792   -2.0250    0.0000 C   0  0  0  0  0  0  0  0  0  0  0  0
    3.0625   -1.6042    0.0000 C   0  0  0  0  0  0  0  0  0  0  0  0
    5.9375   -4.0792    0.0000 C   0  0  0  0  0  0  0  0  0  0  0  0
    3.6750   -4.0792    0.0000 O   0  0  0  0  0  0  0  0  0  0  0  0
    4.5000   -4.9250    0.0000 O   0  0  0  0  0  0  0  0  0  0  0  0
    5.9250   -3.2542    0.0000 N   0  0  0  0  0  0  0  0  0  0  0  0
    3.0625   -0.7792    0.0000 N   0  0  0  0  0  0  0  0  0  0  0  0
    7.3625   -4.0792    0.0000 N   0  0  0  0  0  0  0  0  0  0  0  0
    6.6542   -4.5000    0.0000 C   0  0  0  0  0  0  0  0  0  0  0  0
    5.2167   -2.8500    0.0000 C   0  0  0  0  0  0  0  0  0  0  0  0
    4.5000   -1.6042    0.0000 C   0  0  0  0  0  0  0  0  0  0  0  0
    3.0625   -3.2667    0.0000 C   0  0  0  0  0  0  0  0  0  0  0  0
    2.3417   -2.0250    0.0000 C   0  0  0  0  0  0  0  0  0  0  0  0
    2.3417   -2.8542    0.0000 C   0  0  0  0  0  0  0  0  0  0  0  0
    5.2167   -2.0167    0.0000 C   0  0  0  0  0  0  0  0  0  0  0  0
    6.6417   -2.8375    0.0000 C   0  0  0  0  0  0  0  0  0  0  0  0
    7.3625   -3.2417    0.0000 C   0  0  0  0  0  0  0  0  0  0  0  0
    3.7792   -0.3542    0.0000 C   0  0  0  0  0  0  0  0  0  0  0  0
    2.3417   -0.3625    0.0000 C   0  0  0  0  0  0  0  0  0  0  0  0
  2  1  1  0
  3  1  1  0
  4  3  1  0
  5  4  2  0
  6  5  1  0
  7  2  1  0
  8  1  2  0
  9  1  2  0
 10  7  2  0
 11  6  1  0
 12 13  2  0
 13  7  1  0
 14  3  2  0
 15 19  2  0
 16  4  1  0
 17 18  1  0
 18 16  2  0
 19 14  1  0
 20 10  1  0
 21 12  1  0
 22 11  1  0
 23 11  1  0
 15  5  1  0
 17  6  2  0
 21 20  2  0
M  END

> <chembl_id>
CHEMBL6399

> <chembl_pref_name>
None

$$$$

     RDKit          2D

 24 26  0  0  0  0  0  0  0  0999 V2000
    4.3542   -4.0917    0.0000 S   0  0  0  0  0  0  0  0  0  0  0  0
    5.0625   -4.5042    0.0000 N   0  0  0  0  0  0  0  0  0  0  0  0
    4.3542   -3.2667    0.0000 C   0  0  0  0  0  0  0  0  0  0  0  0
    3.6292   -2.8500    0.0000 C   0  0  0  0  0  0  0  0  0  0  0  0
    3.6292   -2.0167    0.0000 C   0  0  0  0  0  0  0  0  0  0  0  0
    2.9042   -1.6042    0.0000 C   0  0  0  0  0  0  0  0  0  0  0  0
    5.7792   -4.0917    0.0000 C   0  0  0  0  0  0  0  0  0  0  0  0
    3.5167   -4.0917    0.0000 O   0  0  0  0  0  0  0  0  0  0  0  0
    4.3417   -4.9250    0.0000 O   0  0  0  0  0  0  0  0  0  0  0  0
    5.7667   -3.2542    0.0000 N   0  0  0  0  0  0  0  0  0  0  0  0
    2.9042   -0.7667    0.0000 N   0  0  0  0  0  0  0  0  0  0  0  0
    6.4875   -2.8292    0.0000 C   0  0  0  0  0  0  0  0  0  0  0  0
    7.2125   -3.2417    0.0000 C   0  0  0  0  0  0  0  0  0  0  0  0
    6.5042   -4.4917    0.0000 C   0  0  0  0  0  0  0  0  0  0  0  0
    7.9250   -2.8292    0.0000 Cl  0  0  0  0  0  0  0  0  0  0  0  0
    5.0667   -2.8500    0.0000 C   0  0  0  0  0  0  0  0  0  0  0  0
    4.3417   -1.6042    0.0000 C   0  0  0  0  0  0  0  0  0  0  0  0
    2.9042   -3.2667    0.0000 C   0  0  0  0  0  0  0  0  0  0  0  0
    7.2125   -4.0792    0.0000 C   0  0  0  0  0  0  0  0  0  0  0  0
    2.1917   -2.0167    0.0000 C   0  0  0  0  0  0  0  0  0  0  0  0
    5.0667   -2.0167    0.0000 C   0  0  0  0  0  0  0  0  0  0  0  0
    2.1917   -2.8500    0.0000 C   0  0  0  0  0  0  0  0  0  0  0  0
    2.1875   -0.3542    0.0000 C   0  0  0  0  0  0  0  0  0  0  0  0
    3.6292   -0.3542    0.0000 C   0  0  0  0  0  0  0  0  0  0  0  0
  2  1  1  0
  3  1  1  0
  4  3  1  0
  5  4  2  0
  6  5  1  0
  7  2  1  0
  8  1  2  0
  9  1  2  0
 10  7  2  0
 11  6  1  0
 12 10  1  0
 13 19  1  0
 14  7  1  0
 15 13  1  0
 16  3  2  0
 17 21  2  0
 18  4  1  0
 19 14  2  0
 20 22  1  0
 21 16  1  0
 22 18  2  0
 23 11  1  0
 24 11  1  0
 17  5  1  0
 20  6  2  0
 13 12  2  0
M  END

> <chembl_id>
CHEMBL266315

> <chembl_pref_name>
None

$$$$

     RDKit          2D

 24 26  0  0  0  0  0  0  0  0999 V2000
    4.3292   -4.0917    0.0000 S   0  0  0  0  0  0  0  0  0  0  0  0
    4.3292   -3.2667    0.0000 C   0  0  0  0  0  0  0  0  0  0  0  0
    3.6125   -2.8500    0.0000 C   0  0  0  0  0  0  0  0  0  0  0  0
    3.6125   -2.0167    0.0000 C   0  0  0  0  0  0  0  0  0  0  0  0
    5.0417   -4.5042    0.0000 N   0  0  0  0  0  0  0  0  0  0  0  0
    2.8792   -1.6042    0.0000 C   0  0  0  0  0  0  0  0  0  0  0  0
    3.5000   -4.0917    0.0000 O   0  0  0  0  0  0  0  0  0  0  0  0
    4.3167   -4.9250    0.0000 O   0  0  0  0  0  0  0  0  0  0  0  0
    2.8792   -0.7667    0.0000 N   0  0  0  0  0  0  0  0  0  0  0  0
    5.7542   -4.0917    0.0000 C   0  0  0  0  0  0  0  0  0  0  0  0
    7.1917   -3.2417    0.0000 C   0  0  0  0  0  0  0  0  0  0  0  0
    7.9042   -2.8292    0.0000 Br  0  0  0  0  0  0  0  0  0  0  0  0
    5.0417   -2.8500    0.0000 C   0  0  0  0  0  0  0  0  0  0  0  0
    2.8792   -3.2667    0.0000 C   0  0  0  0  0  0  0  0  0  0  0  0
    4.3167   -1.6042    0.0000 C   0  0  0  0  0  0  0  0  0  0  0  0
    6.4792   -4.4917    0.0000 C   0  0  0  0  0  0  0  0  0  0  0  0
    5.7500   -3.2542    0.0000 C   0  0  0  0  0  0  0  0  0  0  0  0
    6.4667   -2.8292    0.0000 C   0  0  0  0  0  0  0  0  0  0  0  0
    7.1917   -4.0792    0.0000 C   0  0  0  0  0  0  0  0  0  0  0  0
    2.1750   -2.0167    0.0000 C   0  0  0  0  0  0  0  0  0  0  0  0
    5.0417   -2.0167    0.0000 C   0  0  0  0  0  0  0  0  0  0  0  0
    2.1750   -2.8500    0.0000 C   0  0  0  0  0  0  0  0  0  0  0  0
    2.1542   -0.3542    0.0000 C   0  0  0  0  0  0  0  0  0  0  0  0
    3.6125   -0.3542    0.0000 C   0  0  0  0  0  0  0  0  0  0  0  0
  2  1  1  0
  3  2  1  0
  4  3  2  0
  5  1  1  0
  6  4  1  0
  7  1  2  0
  8  1  2  0
  9  6  1  0
 10  5  1  0
 11 18  2  0
 12 11  1  0
 13  2  2  0
 14  3  1  0
 15 21  2  0
 16 10  1  0
 17 10  2  0
 18 17  1  0
 19 16  2  0
 20 22  1  0
 21 13  1  0
 22 14  2  0
 23  9  1  0
 24  9  1  0
 11 19  1  0
 15  4  1  0
 20  6  2  0
M  END

> <chembl_id>
CHEMBL6400

> <chembl_pref_name>
None

$$$$

     RDKit          2D

 27 31  0  0  0  0  0  0  0  0999 V2000
    7.0042   -3.6125    0.0000 N   0  0  0  0  0  0  0  0  0  0  0  0
    6.2875   -4.0250    0.0000 C   0  0  0  0  0  0  0  0  0  0  0  0
    5.5667   -3.6042    0.0000 C   0  0  0  0  0  0  0  0  0  0  0  0
    5.5750   -2.7792    0.0000 C   0  0  0  0  0  0  0  0  0  0  0  0
    6.2875   -2.3667    0.0000 C   0  0  0  0  0  0  0  0  0  0  0  0
    7.0042   -2.7792    0.0000 C   0  0  0  0  0  0  0  0  0  0  0  0
    6.9917   -5.2625    0.0000 N   0  0  0  0  0  0  0  0  0  0  0  0
    6.2792   -4.8417    0.0000 C   0  0  0  0  0  0  0  0  0  0  0  0
    7.7167   -4.0250    0.0000 C   0  0  0  0  0  0  0  0  0  0  0  0
    6.2875   -1.5417    0.0000 C   0  0  0  0  0  0  0  0  0  0  0  0
    6.9917   -6.0875    0.0000 C   0  0  0  0  0  0  0  0  0  0  0  0
    7.7125   -4.8542    0.0000 C   0  0  0  0  0  0  0  0  0  0  0  0
    6.2750   -6.5000    0.0000 C   0  0  0  0  0  0  0  0  0  0  0  0
    4.8542   -4.0250    0.0000 C   0  0  0  0  0  0  0  0  0  0  0  0
    4.8542   -2.3667    0.0000 C   0  0  0  0  0  0  0  0  0  0  0  0
    7.0042   -1.1292    0.0000 C   0  0  0  0  0  0  0  0  0  0  0  0
    5.5750   -1.1375    0.0000 C   0  0  0  0  0  0  0  0  0  0  0  0
    5.5625   -6.0792    0.0000 C   0  0  0  0  0  0  0  0  0  0  0  0
    6.2667   -7.3167    0.0000 C   0  0  0  0  0  0  0  0  0  0  0  0
    4.1417   -3.6125    0.0000 C   0  0  0  0  0  0  0  0  0  0  0  0
    4.1417   -2.7875    0.0000 C   0  0  0  0  0  0  0  0  0  0  0  0
    5.5750   -0.3125    0.0000 C   0  0  0  0  0  0  0  0  0  0  0  0
    7.0042   -0.3042    0.0000 C   0  0  0  0  0  0  0  0  0  0  0  0
    5.5542   -7.7292    0.0000 C   0  0  0  0  0  0  0  0  0  0  0  0
    4.8417   -6.4792    0.0000 C   0  0  0  0  0  0  0  0  0  0  0  0
    6.2917    0.1083    0.0000 C   0  0  0  0  0  0  0  0  0  0  0  0
    4.8417   -7.3125    0.0000 C   0  0  0  0  0  0  0  0  0  0  0  0
  2  1  1  0
  3  2  1  0
  4  5  1  0
  5  6  1  0
  6  1  1  0
  7 12  1  0
  8  2  1  0
  9  1  1  0
 10  5  1  0
 11  7  1  0
 12  9  1  0
 13 11  1  0
 14  3  2  0
 15  4  2  0
 16 10  2  0
 17 10  1  0
 18 13  2  0
 19 13  1  0
 20 14  1  0
 21 15  1  0
 22 17  2  0
 23 16  1  0
 24 19  2  0
 25 18  1  0
 26 22  1  0
 27 24  1  0
  8  7  1  0
  4  3  1  0
 21 20  2  0
 23 26  2  0
 25 27  2  0
M  END

> <chembl_id>
CHEMBL6574

> <chembl_pref_name>
None

$$$$

     RDKit          2D

 27 30  0  0  0  0  0  0  0  0999 V2000
    5.7917   -4.4167    0.0000 C   0  0  0  0  0  0  0  0  0  0  0  0
    7.2250   -4.4250    0.0000 N   0  0  0  0  0  0  0  0  0  0  0  0
    3.6500   -4.8375    0.0000 N   0  0  0  0  0  0  0  0  0  0  0  0
    6.5042   -4.8375    0.0000 C   0  0  0  0  0  0  0  0  0  0  0  0
    6.5042    0.1125    0.0000 N   0  0  0  0  0  0  0  0  0  0  0  0
    5.7917   -3.5917    0.0000 C   0  0  0  0  0  0  0  0  0  0  0  0
    6.5042   -3.1792    0.0000 C   0  0  0  0  0  0  0  0  0  0  0  0
    7.2250   -3.5917    0.0000 C   0  0  0  0  0  0  0  0  0  0  0  0
    5.0792   -4.8375    0.0000 C   0  0  0  0  0  0  0  0  0  0  0  0
    4.3667   -4.4250    0.0000 C   0  0  0  0  0  0  0  0  0  0  0  0
    7.2167   -6.0750    0.0000 N   0  0  0  0  0  0  0  0  0  0  0  0
    5.0792   -3.1792    0.0000 C   0  0  0  0  0  0  0  0  0  0  0  0
    6.5125   -0.7042    0.0000 C   0  0  0  0  0  0  0  0  0  0  0  0
    6.5042   -5.6542    0.0000 C   0  0  0  0  0  0  0  0  0  0  0  0
    2.9292   -4.4250    0.0000 O   0  0  0  0  0  0  0  0  0  0  0  0
    7.2167    0.5333    0.0000 O   0  0  0  0  0  0  0  0  0  0  0  0
    6.5042   -2.3542    0.0000 C   0  0  0  0  0  0  0  0  0  0  0  0
    3.6500   -5.6625    0.0000 O   0  0  0  0  0  0  0  0  0  0  0  0
    5.7917    0.5250    0.0000 O   0  0  0  0  0  0  0  0  0  0  0  0
    7.9417   -4.8375    0.0000 C   0  0  0  0  0  0  0  0  0  0  0  0
    4.3667   -3.6000    0.0000 C   0  0  0  0  0  0  0  0  0  0  0  0
    5.7917   -1.1250    0.0000 C   0  0  0  0  0  0  0  0  0  0  0  0
    7.2250   -1.1167    0.0000 C   0  0  0  0  0  0  0  0  0  0  0  0
    5.7917   -1.9500    0.0000 C   0  0  0  0  0  0  0  0  0  0  0  0
    7.2250   -1.9417    0.0000 C   0  0  0  0  0  0  0  0  0  0  0  0
    7.9292   -5.6667    0.0000 C   0  0  0  0  0  0  0  0  0  0  0  0
    7.2125   -6.9000    0.0000 C   0  0  0  0  0  0  0  0  0  0  0  0
  2  4  1  0
  3 10  1  0
  4  1  1  0
  5 13  1  0
  6  1  1  0
  7  6  1  0
  8  7  1  0
  9  1  2  0
 10  9  1  0
 11 14  1  0
 12  6  2  0
 13 23  2  0
 14  4  1  0
 15  3  1  0
 16  5  1  0
 17  7  1  0
 18  3  2  0
 19  5  2  0
 20  2  1  0
 21 10  2  0
 22 24  2  0
 23 25  1  0
 24 17  1  0
 25 17  2  0
 26 11  1  0
 27 11  1  0
 12 21  1  0
  2  8  1  0
 26 20  1  0
 13 22  1  0
M  CHG  4   3   1   5   1  15  -1  16  -1
M  END

> <chembl_id>
CHEMBL6575

> <chembl_pref_name>
None

$$$$

     RDKit          2D

 22 25  0  0  0  0  0  0  0  0999 V2000
    7.6542   -6.1042    0.0000 N   0  0  0  0  0  0  0  0  0  0  0  0
    6.9417   -6.5167    0.0000 C   0  0  0  0  0  0  0  0  0  0  0  0
    6.2250   -6.1042    0.0000 C   0  0  0  0  0  0  0  0  0  0  0  0
    6.2292   -5.2792    0.0000 C   0  0  0  0  0  0  0  0  0  0  0  0
    6.9417   -4.8625    0.0000 C   0  0  0  0  0  0  0  0  0  0  0  0
    7.6542   -5.2792    0.0000 C   0  0  0  0  0  0  0  0  0  0  0  0
    7.6500   -7.7542    0.0000 N   0  0  0  0  0  0  0  0  0  0  0  0
    6.9375   -7.3417    0.0000 C   0  0  0  0  0  0  0  0  0  0  0  0
    6.9417   -4.0417    0.0000 C   0  0  0  0  0  0  0  0  0  0  0  0
    8.3750   -6.5167    0.0000 C   0  0  0  0  0  0  0  0  0  0  0  0
    6.2292   -3.6292    0.0000 C   0  0  0  0  0  0  0  0  0  0  0  0
    7.6542   -3.6292    0.0000 C   0  0  0  0  0  0  0  0  0  0  0  0
    8.3667   -7.3500    0.0000 C   0  0  0  0  0  0  0  0  0  0  0  0
    6.9417   -2.3917    0.0000 C   0  0  0  0  0  0  0  0  0  0  0  0
    6.2292   -2.8042    0.0000 C   0  0  0  0  0  0  0  0  0  0  0  0
    7.6542   -2.8042    0.0000 C   0  0  0  0  0  0  0  0  0  0  0  0
    6.9417   -1.5667    0.0000 Cl  0  0  0  0  0  0  0  0  0  0  0  0
    5.5125   -6.5167    0.0000 C   0  0  0  0  0  0  0  0  0  0  0  0
    5.5125   -4.8667    0.0000 C   0  0  0  0  0  0  0  0  0  0  0  0
    7.6417   -8.5792    0.0000 C   0  0  0  0  0  0  0  0  0  0  0  0
    4.8000   -5.2792    0.0000 C   0  0  0  0  0  0  0  0  0  0  0  0
    4.8000   -6.1042    0.0000 C   0  0  0  0  0  0  0  0  0  0  0  0
  2  1  1  0
  3  2  1  0
  4  5  1  0
  5  6  1  0
  6  1  1  0
  7 13  1  0
  8  2  1  0
  9  5  1  0
 10  1  1  0
 11  9  1  0
 12  9  2  0
 13 10  1  0
 14 16  2  0
 15 11  2  0
 16 12  1  0
 17 14  1  0
 18  3  2  0
 19  4  2  0
 20  7  1  0
 21 19  1  0
 22 18  1  0
  8  7  1  0
  4  3  1  0
 21 22  2  0
 14 15  1  0
M  END

> <chembl_id>
CHEMBL6459

> <chembl_pref_name>
None

$$$$

     RDKit          2D

 24 27  0  0  0  0  0  0  0  0999 V2000
    7.4750   -5.4542    0.0000 N   0  0  0  0  0  0  0  0  0  0  0  0
    6.7542   -0.9167    0.0000 N   0  0  0  0  0  0  0  0  0  0  0  0
    6.7542   -5.8667    0.0000 C   0  0  0  0  0  0  0  0  0  0  0  0
    6.0417   -5.4500    0.0000 C   0  0  0  0  0  0  0  0  0  0  0  0
    6.0417   -4.6250    0.0000 C   0  0  0  0  0  0  0  0  0  0  0  0
    6.7542   -4.2042    0.0000 C   0  0  0  0  0  0  0  0  0  0  0  0
    7.4750   -4.6250    0.0000 C   0  0  0  0  0  0  0  0  0  0  0  0
    7.4667   -7.1042    0.0000 N   0  0  0  0  0  0  0  0  0  0  0  0
    6.7625   -1.7375    0.0000 C   0  0  0  0  0  0  0  0  0  0  0  0
    6.7542   -6.6875    0.0000 C   0  0  0  0  0  0  0  0  0  0  0  0
    7.4667   -0.5000    0.0000 O   0  0  0  0  0  0  0  0  0  0  0  0
    6.7542   -3.3875    0.0000 C   0  0  0  0  0  0  0  0  0  0  0  0
    6.0417   -0.5042    0.0000 O   0  0  0  0  0  0  0  0  0  0  0  0
    8.1917   -5.8667    0.0000 C   0  0  0  0  0  0  0  0  0  0  0  0
    7.4750   -2.1500    0.0000 C   0  0  0  0  0  0  0  0  0  0  0  0
    6.0417   -2.1542    0.0000 C   0  0  0  0  0  0  0  0  0  0  0  0
    7.4750   -2.9750    0.0000 C   0  0  0  0  0  0  0  0  0  0  0  0
    6.0417   -2.9792    0.0000 C   0  0  0  0  0  0  0  0  0  0  0  0
    8.1792   -6.6917    0.0000 C   0  0  0  0  0  0  0  0  0  0  0  0
    5.3292   -5.8667    0.0000 C   0  0  0  0  0  0  0  0  0  0  0  0
    5.3292   -4.2125    0.0000 C   0  0  0  0  0  0  0  0  0  0  0  0
    7.4625   -7.9292    0.0000 C   0  0  0  0  0  0  0  0  0  0  0  0
    4.6167   -4.6250    0.0000 C   0  0  0  0  0  0  0  0  0  0  0  0
    4.6167   -5.4542    0.0000 C   0  0  0  0  0  0  0  0  0  0  0  0
  2  9  1  0
  3  1  1  0
  4  3  1  0
  5  6  1  0
  6  7  1  0
  7  1  1  0
  8 19  1  0
  9 16  1  0
 10  3  1  0
 11  2  1  0
 12  6  1  0
 13  2  2  0
 14  1  1  0
 15 17  1  0
 16 18  2  0
 17 12  2  0
 18 12  1  0
 19 14  1  0
 20  4  2  0
 21  5  2  0
 22  8  1  0
 23 21  1  0
 24 20  1  0
 10  8  1  0
  5  4  1  0
 23 24  2  0
 15  9  2  0
M  CHG  2   2   1  11  -1
M  END

> <chembl_id>
CHEMBL266801

> <chembl_pref_name>
None

$$$$

     RDKit          2D

 25 27  0  0  0  0  0  0  0  0999 V2000
    4.3250   -4.0917    0.0000 S   0  0  0  0  0  0  0  0  0  0  0  0
    5.0375   -4.5042    0.0000 N   0  0  0  0  0  0  0  0  0  0  0  0
    4.3250   -3.2542    0.0000 C   0  0  0  0  0  0  0  0  0  0  0  0
    3.6042   -2.8417    0.0000 C   0  0  0  0  0  0  0  0  0  0  0  0
    5.7417   -3.2542    0.0000 N   0  0  0  0  0  0  0  0  0  0  0  0
    3.6042   -2.0125    0.0000 C   0  0  0  0  0  0  0  0  0  0  0  0
    5.7500   -4.0792    0.0000 C   0  0  0  0  0  0  0  0  0  0  0  0
    2.8792   -1.5917    0.0000 C   0  0  0  0  0  0  0  0  0  0  0  0
    3.4917   -4.0792    0.0000 O   0  0  0  0  0  0  0  0  0  0  0  0
    4.3167   -4.9167    0.0000 O   0  0  0  0  0  0  0  0  0  0  0  0
    6.4625   -2.8250    0.0000 C   0  0  0  0  0  0  0  0  0  0  0  0
    2.8792   -0.7667    0.0000 N   0  0  0  0  0  0  0  0  0  0  0  0
    7.1875   -3.2417    0.0000 C   0  0  0  0  0  0  0  0  0  0  0  0
    7.1875   -4.0667    0.0000 C   0  0  0  0  0  0  0  0  0  0  0  0
    6.4792   -4.4875    0.0000 C   0  0  0  0  0  0  0  0  0  0  0  0
    7.8917   -2.8250    0.0000 Br  0  0  0  0  0  0  0  0  0  0  0  0
    5.0417   -2.8417    0.0000 C   0  0  0  0  0  0  0  0  0  0  0  0
    2.8792   -3.2542    0.0000 C   0  0  0  0  0  0  0  0  0  0  0  0
    4.3167   -1.5917    0.0000 C   0  0  0  0  0  0  0  0  0  0  0  0
    2.1667   -2.0125    0.0000 C   0  0  0  0  0  0  0  0  0  0  0  0
    5.0417   -2.0125    0.0000 C   0  0  0  0  0  0  0  0  0  0  0  0
    2.1667   -2.8417    0.0000 C   0  0  0  0  0  0  0  0  0  0  0  0
    6.4625   -1.9917    0.0000 C   0  0  0  0  0  0  0  0  0  0  0  0
    3.6042   -0.3542    0.0000 C   0  0  0  0  0  0  0  0  0  0  0  0
    2.1625   -0.3542    0.0000 C   0  0  0  0  0  0  0  0  0  0  0  0
  2  1  1  0
  3  1  1  0
  4  3  1  0
  5  7  2  0
  6  4  2  0
  7  2  1  0
  8  6  1  0
  9  1  2  0
 10  1  2  0
 11  5  1  0
 12  8  1  0
 13 14  1  0
 14 15  2  0
 15  7  1  0
 16 13  1  0
 17  3  2  0
 18  4  1  0
 19 21  2  0
 20 22  1  0
 21 17  1  0
 22 18  2  0
 23 11  1  0
 24 12  1  0
 25 12  1  0
 19  6  1  0
 20  8  2  0
 13 11  2  0
M  END

> <chembl_id>
CHEMBL6566

> <chembl_pref_name>
None

$$$$

     RDKit          2D

 23 25  0  0  0  0  0  0  0  0999 V2000
    1.4292   -5.1042    0.0000 N   0  0  0  0  0  0  0  0  0  0  0  0
    2.1417   -3.8667    0.0000 N   0  0  0  0  0  0  0  0  0  0  0  0
    2.8625   -5.1042    0.0000 C   0  0  0  0  0  0  0  0  0  0  0  0
    2.8625   -4.2792    0.0000 C   0  0  0  0  0  0  0  0  0  0  0  0
    2.1417   -5.5167    0.0000 C   0  0  0  0  0  0  0  0  0  0  0  0
    1.4292   -4.2792    0.0000 C   0  0  0  0  0  0  0  0  0  0  0  0
    3.5792   -5.5167    0.0000 N   0  0  0  0  0  0  0  0  0  0  0  0
    6.4125   -3.0292    0.0000 C   0  0  0  0  0  0  0  0  0  0  0  0
    3.5667   -3.8625    0.0000 N   0  0  0  0  0  0  0  0  0  0  0  0
    4.2917   -5.1000    0.0000 C   0  0  0  0  0  0  0  0  0  0  0  0
    6.4250   -3.8542    0.0000 C   0  0  0  0  0  0  0  0  0  0  0  0
    5.0042   -5.5042    0.0000 S   0  0  0  0  0  0  0  0  0  0  0  0
    5.7125   -4.2750    0.0000 C   0  0  0  0  0  0  0  0  0  0  0  0
    5.7167   -5.0917    0.0000 C   0  0  0  0  0  0  0  0  0  0  0  0
    4.2875   -4.2667    0.0000 C   0  0  0  0  0  0  0  0  0  0  0  0
    2.1500   -6.3417    0.0000 N   0  0  0  0  0  0  0  0  0  0  0  0
    6.4042   -2.2792    0.0000 F   0  0  0  0  0  0  0  0  0  0  0  0
    7.0792   -2.4792    0.0000 F   0  0  0  0  0  0  0  0  0  0  0  0
    5.7417   -2.4917    0.0000 F   0  0  0  0  0  0  0  0  0  0  0  0
    0.7167   -3.8667    0.0000 N   0  0  0  0  0  0  0  0  0  0  0  0
    7.1417   -4.2667    0.0000 C   0  0  0  0  0  0  0  0  0  0  0  0
    7.1417   -5.0917    0.0000 C   0  0  0  0  0  0  0  0  0  0  0  0
    6.4292   -5.5042    0.0000 C   0  0  0  0  0  0  0  0  0  0  0  0
  2  6  1  0
  3  5  2  0
  4  2  2  0
  5  1  1  0
  6  1  2  0
  7  3  1  0
  8 11  1  0
  9  4  1  0
 10  7  2  0
 11 13  2  0
 12 10  1  0
 13 14  1  0
 14 12  1  0
 15  9  2  0
 16  5  1  0
 17  8  1  0
 18  8  1  0
 19  8  1  0
 20  6  1  0
 21 22  2  0
 22 23  1  0
 23 14  2  0
  3  4  1  0
 10 15  1  0
 11 21  1  0
M  END

> <chembl_id>
CHEMBL6570

> <chembl_pref_name>
None

$$$$

     RDKit          2D

 32 35  0  0  0  0  0  0  0  0999 V2000
    3.8542   -4.0875    0.0000 C   0  0  0  0  0  0  0  0  0  0  0  0
    3.1417   -3.6500    0.0000 C   0  0  0  0  0  0  0  0  0  0  0  0
    4.5792   -3.6917    0.0000 C   0  0  0  0  0  0  0  0  0  0  0  0
    3.8292   -4.9167    0.0000 C   0  0  0  0  0  0  0  0  0  0  0  0
    9.6417   -2.5792    0.0000 N   0  0  0  0  0  0  0  0  0  0  0  0
    3.1667   -2.8250    0.0000 C   0  0  0  0  0  0  0  0  0  0  0  0
    5.2792   -4.1292    0.0000 C   0  0  0  0  0  0  0  0  0  0  0  0
    3.1042   -5.3125    0.0000 C   0  0  0  0  0  0  0  0  0  0  0  0
    4.5375   -5.3500    0.0000 C   0  0  0  0  0  0  0  0  0  0  0  0
    4.6042   -2.8667    0.0000 C   0  0  0  0  0  0  0  0  0  0  0  0
    3.7875   -6.5750    0.0000 C   0  0  0  0  0  0  0  0  0  0  0  0
    6.0375   -2.9000    0.0000 C   0  0  0  0  0  0  0  0  0  0  0  0
    3.0792   -6.1375    0.0000 C   0  0  0  0  0  0  0  0  0  0  0  0
    4.5167   -6.1792    0.0000 C   0  0  0  0  0  0  0  0  0  0  0  0
    6.0167   -3.7292    0.0000 C   0  0  0  0  0  0  0  0  0  0  0  0
    5.3292   -2.4667    0.0000 C   0  0  0  0  0  0  0  0  0  0  0  0
    3.7750   -7.4042    0.0000 I   0  0  0  0  0  0  0  0  0  0  0  0
    2.4167   -4.0417    0.0000 C   0  0  0  0  0  0  0  0  0  0  0  0
    8.9125   -2.9792    0.0000 C   0  0  0  0  0  0  0  0  0  0  0  0
    8.2042   -2.5417    0.0000 C   0  0  0  0  0  0  0  0  0  0  0  0
    6.7750   -2.5042    0.0000 O   0  0  0  0  0  0  0  0  0  0  0  0
   10.4167   -2.8667    0.0000 C   0  0  0  0  0  0  0  0  0  0  0  0
    9.6750   -1.7542    0.0000 C   0  0  0  0  0  0  0  0  0  0  0  0
    7.4792   -2.9375    0.0000 C   0  0  0  0  0  0  0  0  0  0  0  0
    3.8917   -2.4250    0.0000 C   0  0  0  0  0  0  0  0  0  0  0  0
    2.4667   -2.3917    0.0000 C   0  0  0  0  0  0  0  0  0  0  0  0
    2.4000   -4.8792    0.0000 C   0  0  0  0  0  0  0  0  0  0  0  0
   10.4667   -1.5292    0.0000 C   0  0  0  0  0  0  0  0  0  0  0  0
   10.9167   -2.2167    0.0000 C   0  0  0  0  0  0  0  0  0  0  0  0
    2.4792   -1.5667    0.0000 C   0  0  0  0  0  0  0  0  0  0  0  0
    3.9125   -1.6000    0.0000 C   0  0  0  0  0  0  0  0  0  0  0  0
    3.2125   -1.1667    0.0000 C   0  0  0  0  0  0  0  0  0  0  0  0
  2  1  2  0
  3  1  1  0
  4  1  1  0
  5 19  1  0
  6  2  1  0
  7  3  2  0
  8  4  2  0
  9  4  1  0
 10  3  1  0
 11 14  1  0
 12 16  1  0
 13  8  1  0
 14  9  2  0
 15  7  1  0
 16 10  2  0
 17 11  1  0
 18  2  1  0
 19 20  1  0
 20 24  1  0
 21 12  1  0
 22  5  1  0
 23  5  1  0
 24 21  1  0
 25  6  1  0
 26  6  2  0
 27 18  1  0
 28 23  1  0
 29 22  1  0
 30 26  1  0
 31 25  2  0
 32 30  2  0
 11 13  2  0
 12 15  2  0
 32 31  1  0
 28 29  1  0
M  END

> <chembl_id>
CHEMBL269472

> <chembl_pref_name>
None

$$$$

     RDKit          2D

 27 29  0  0  0  0  0  0  0  0999 V2000
    4.3292   -3.5417    0.0000 S   0  0  0  0  0  0  0  0  0  0  0  0
    5.0417   -3.9625    0.0000 N   0  0  0  0  0  0  0  0  0  0  0  0
    5.7542   -3.5292    0.0000 C   0  0  0  0  0  0  0  0  0  0  0  0
    4.3292   -2.7167    0.0000 C   0  0  0  0  0  0  0  0  0  0  0  0
    3.6125   -2.3042    0.0000 C   0  0  0  0  0  0  0  0  0  0  0  0
    3.6125   -1.4750    0.0000 C   0  0  0  0  0  0  0  0  0  0  0  0
    7.1917   -3.5292    0.0000 N   0  0  0  0  0  0  0  0  0  0  0  0
    5.7500   -2.7042    0.0000 N   0  0  0  0  0  0  0  0  0  0  0  0
    2.8792   -1.0542    0.0000 C   0  0  0  0  0  0  0  0  0  0  0  0
    6.4792   -3.9500    0.0000 C   0  0  0  0  0  0  0  0  0  0  0  0
    3.5000   -3.5292    0.0000 O   0  0  0  0  0  0  0  0  0  0  0  0
    4.3167   -4.3750    0.0000 O   0  0  0  0  0  0  0  0  0  0  0  0
    7.1917   -2.6917    0.0000 C   0  0  0  0  0  0  0  0  0  0  0  0
    2.8792   -0.2292    0.0000 N   0  0  0  0  0  0  0  0  0  0  0  0
    6.4667   -2.2875    0.0000 C   0  0  0  0  0  0  0  0  0  0  0  0
    7.9042   -2.2792    0.0000 Br  0  0  0  0  0  0  0  0  0  0  0  0
    5.0417   -2.3000    0.0000 C   0  0  0  0  0  0  0  0  0  0  0  0
    2.8792   -2.7167    0.0000 C   0  0  0  0  0  0  0  0  0  0  0  0
    4.3167   -1.0542    0.0000 C   0  0  0  0  0  0  0  0  0  0  0  0
    2.1750   -1.4750    0.0000 C   0  0  0  0  0  0  0  0  0  0  0  0
    5.0417   -1.4667    0.0000 C   0  0  0  0  0  0  0  0  0  0  0  0
    2.1750   -2.3042    0.0000 C   0  0  0  0  0  0  0  0  0  0  0  0
    6.4792   -4.7792    0.0000 C   0  0  0  0  0  0  0  0  0  0  0  0
    3.6125    0.1958    0.0000 C   0  0  0  0  0  0  0  0  0  0  0  0
    2.1542    0.1875    0.0000 C   0  0  0  0  0  0  0  0  0  0  0  0
    7.2125   -5.1917    0.0000 C   0  0  0  0  0  0  0  0  0  0  0  0
    7.2125   -6.0167    0.0000 C   0  0  0  0  0  0  0  0  0  0  0  0
  2  1  1  0
  3  2  1  0
  4  1  1  0
  5  4  1  0
  6  5  2  0
  7 10  2  0
  8  3  2  0
  9  6  1  0
 10  3  1  0
 11  1  2  0
 12  1  2  0
 13  7  1  0
 14  9  1  0
 15  8  1  0
 16 13  1  0
 17  4  2  0
 18  5  1  0
 19 21  2  0
 20 22  1  0
 21 17  1  0
 22 18  2  0
 23 10  1  0
 24 14  1  0
 25 14  1  0
 26 23  1  0
 27 26  1  0
 19  6  1  0
 13 15  2  0
 20  9  2  0
M  END

> <chembl_id>
CHEMBL6512

> <chembl_pref_name>
None

$$$$

     RDKit          2D

 26 28  0  0  0  0  0  0  0  0999 V2000
    4.3375   -3.9542    0.0000 S   0  0  0  0  0  0  0  0  0  0  0  0
    5.0417   -4.3667    0.0000 N   0  0  0  0  0  0  0  0  0  0  0  0
    5.7542   -3.9417    0.0000 C   0  0  0  0  0  0  0  0  0  0  0  0
    4.3375   -3.1292    0.0000 C   0  0  0  0  0  0  0  0  0  0  0  0
    7.1792   -3.9375    0.0000 N   0  0  0  0  0  0  0  0  0  0  0  0
    6.4750   -4.3542    0.0000 C   0  0  0  0  0  0  0  0  0  0  0  0
    3.6167   -2.7167    0.0000 C   0  0  0  0  0  0  0  0  0  0  0  0
    5.7417   -3.1167    0.0000 N   0  0  0  0  0  0  0  0  0  0  0  0
    3.6167   -1.8917    0.0000 C   0  0  0  0  0  0  0  0  0  0  0  0
    2.9000   -1.4792    0.0000 C   0  0  0  0  0  0  0  0  0  0  0  0
    3.5125   -3.9417    0.0000 O   0  0  0  0  0  0  0  0  0  0  0  0
    4.3250   -4.7792    0.0000 O   0  0  0  0  0  0  0  0  0  0  0  0
    7.1792   -3.1125    0.0000 C   0  0  0  0  0  0  0  0  0  0  0  0
    2.9000   -0.6542    0.0000 N   0  0  0  0  0  0  0  0  0  0  0  0
    6.4542   -2.7042    0.0000 C   0  0  0  0  0  0  0  0  0  0  0  0
    6.4750   -5.1792    0.0000 O   0  0  0  0  0  0  0  0  0  0  0  0
    7.8792   -2.7000    0.0000 Br  0  0  0  0  0  0  0  0  0  0  0  0
    5.0500   -2.7167    0.0000 C   0  0  0  0  0  0  0  0  0  0  0  0
    4.3250   -1.4792    0.0000 C   0  0  0  0  0  0  0  0  0  0  0  0
    2.9000   -3.1292    0.0000 C   0  0  0  0  0  0  0  0  0  0  0  0
    2.1917   -1.8917    0.0000 C   0  0  0  0  0  0  0  0  0  0  0  0
    2.1917   -2.7167    0.0000 C   0  0  0  0  0  0  0  0  0  0  0  0
    5.0500   -1.8792    0.0000 C   0  0  0  0  0  0  0  0  0  0  0  0
    3.6167   -0.2417    0.0000 C   0  0  0  0  0  0  0  0  0  0  0  0
    2.1792   -0.2417    0.0000 C   0  0  0  0  0  0  0  0  0  0  0  0
    7.1917   -5.5875    0.0000 C   0  0  0  0  0  0  0  0  0  0  0  0
  2  1  1  0
  3  2  1  0
  4  1  1  0
  5  6  2  0
  6  3  1  0
  7  4  1  0
  8  3  2  0
  9  7  2  0
 10  9  1  0
 11  1  2  0
 12  1  2  0
 13 15  2  0
 14 10  1  0
 15  8  1  0
 16  6  1  0
 17 13  1  0
 18  4  2  0
 19 23  2  0
 20  7  1  0
 21 22  1  0
 22 20  2  0
 23 18  1  0
 24 14  1  0
 25 14  1  0
 26 16  1  0
 19  9  1  0
 21 10  2  0
 13  5  1  0
M  END

> <chembl_id>
CHEMBL6800

> <chembl_pref_name>
None

$$$$

     RDKit          2D

 14 15  0  0  0  0  0  0  0  0999 V2000
   -0.0708   -2.7417    0.0000 C   0  0  0  0  0  0  0  0  0  0  0  0
   -1.1083   -2.7500    0.0000 C   0  0  0  0  0  0  0  0  0  0  0  0
   -1.1083   -3.3500    0.0000 C   0  0  0  0  0  0  0  0  0  0  0  0
   -0.5875   -2.4417    0.0000 C   0  0  0  0  0  0  0  0  0  0  0  0
   -0.0708   -3.3500    0.0000 C   0  0  0  0  0  0  0  0  0  0  0  0
   -0.5875   -3.6500    0.0000 C   0  0  0  0  0  0  0  0  0  0  0  0
   -1.6833   -2.5667    0.0000 O   0  0  0  0  0  0  0  0  0  0  0  0
   -1.6750   -3.5375    0.0000 O   0  0  0  0  0  0  0  0  0  0  0  0
   -2.0333   -3.0542    0.0000 C   0  0  0  0  0  0  0  0  0  0  0  0
    0.4500   -2.4417    0.0000 C   0  0  0  0  0  0  0  0  0  0  0  0
    1.4875   -2.4375    0.0000 N   0  0  0  0  0  0  0  0  0  0  0  0
    0.9667   -2.7375    0.0000 C   0  0  0  0  0  0  0  0  0  0  0  0
    0.4542   -3.6500    0.0000 C   0  0  0  0  0  0  0  0  0  0  0  0
    0.9667   -3.3375    0.0000 C   0  0  0  0  0  0  0  0  0  0  0  0
  2  4  1  0
  3  6  1  0
  4  1  2  0
  5  1  1  0
  6  5  2  0
  7  2  1  0
  8  3  1  0
  9  7  1  0
 10  1  1  0
 11 12  1  0
 12 10  1  0
 13  5  1  0
 14 12  1  0
  2  3  2  0
  9  8  1  0
M  END

> <chembl_id>
CHEMBL6376

> <chembl_pref_name>
None

$$$$

     RDKit          2D

 11 11  0  0  0  0  0  0  0  0999 V2000
   -1.1083   -3.3500    0.0000 C   0  0  0  0  0  0  0  0  0  0  0  0
   -0.0708   -2.7417    0.0000 C   0  0  0  0  0  0  0  0  0  0  0  0
    0.4500   -2.4417    0.0000 C   0  0  0  0  0  0  0  0  0  0  0  0
   -1.6250   -3.6417    0.0000 I   0  0  0  0  0  0  0  0  0  0  0  0
    1.4875   -2.4375    0.0000 N   0  0  0  0  0  0  0  0  0  0  0  0
   -1.1083   -2.7500    0.0000 C   0  0  0  0  0  0  0  0  0  0  0  0
   -0.5875   -3.6500    0.0000 C   0  0  0  0  0  0  0  0  0  0  0  0
   -0.5875   -2.4417    0.0000 C   0  0  0  0  0  0  0  0  0  0  0  0
   -0.0708   -3.3500    0.0000 C   0  0  0  0  0  0  0  0  0  0  0  0
    0.9667   -2.7375    0.0000 C   0  0  0  0  0  0  0  0  0  0  0  0
    0.9667   -3.3375    0.0000 C   0  0  0  0  0  0  0  0  0  0  0  0
  2  9  1  0
  3  2  1  0
  4  1  1  0
  5 10  1  0
  6  1  2  0
  7  1  1  0
  8  6  1  0
  9  7  2  0
 10  3  1  0
 11 10  1  0
  2  8  2  0
M  END

> <chembl_id>
CHEMBL6368

> <chembl_pref_name>
p-IODOAMPHETAMINE

$$$$

     RDKit          2D

 30 33  0  0  0  0  0  0  0  0999 V2000
    3.8125   -6.6042    0.0000 C   0  0  0  0  0  0  0  0  0  0  0  0
    3.8167   -7.4375    0.0000 N   0  0  0  0  0  0  0  0  0  0  0  0
    2.3792   -7.4417    0.0000 C   0  0  0  0  0  0  0  0  0  0  0  0
    3.1042   -7.8542    0.0000 C   0  0  0  0  0  0  0  0  0  0  0  0
    3.0917   -6.2000    0.0000 N   0  0  0  0  0  0  0  0  0  0  0  0
    2.3792   -6.6167    0.0000 C   0  0  0  0  0  0  0  0  0  0  0  0
    4.5250   -6.1917    0.0000 N   0  0  0  0  0  0  0  0  0  0  0  0
    6.6625   -4.9500    0.0000 C   0  0  0  0  0  0  0  0  0  0  0  0
    1.6667   -7.8542    0.0000 C   0  0  0  0  0  0  0  0  0  0  0  0
    1.6667   -6.2042    0.0000 C   0  0  0  0  0  0  0  0  0  0  0  0
    6.6542   -4.1250    0.0000 N   0  0  0  0  0  0  0  0  0  0  0  0
    0.9542   -7.4417    0.0000 C   0  0  0  0  0  0  0  0  0  0  0  0
    0.9542   -6.6167    0.0000 C   0  0  0  0  0  0  0  0  0  0  0  0
    5.9500   -5.3625    0.0000 C   0  0  0  0  0  0  0  0  0  0  0  0
    5.2375   -6.6042    0.0000 C   0  0  0  0  0  0  0  0  0  0  0  0
    4.5167   -5.3667    0.0000 C   0  0  0  0  0  0  0  0  0  0  0  0
    7.3750   -5.3542    0.0000 O   0  0  0  0  0  0  0  0  0  0  0  0
    3.1042   -8.6792    0.0000 N   0  0  0  0  0  0  0  0  0  0  0  0
    5.2292   -4.9542    0.0000 C   0  0  0  0  0  0  0  0  0  0  0  0
    5.9500   -6.1875    0.0000 C   0  0  0  0  0  0  0  0  0  0  0  0
    5.9417   -3.7125    0.0000 C   0  0  0  0  0  0  0  0  0  0  0  0
    0.2417   -7.8542    0.0000 O   0  0  0  0  0  0  0  0  0  0  0  0
    0.2417   -6.2042    0.0000 O   0  0  0  0  0  0  0  0  0  0  0  0
    5.9417   -2.8917    0.0000 C   0  0  0  0  0  0  0  0  0  0  0  0
    5.2375   -4.1292    0.0000 C   0  0  0  0  0  0  0  0  0  0  0  0
    0.2417   -8.6792    0.0000 C   0  0  0  0  0  0  0  0  0  0  0  0
    0.2417   -5.3792    0.0000 C   0  0  0  0  0  0  0  0  0  0  0  0
    4.5167   -3.7250    0.0000 C   0  0  0  0  0  0  0  0  0  0  0  0
    5.2292   -2.4792    0.0000 C   0  0  0  0  0  0  0  0  0  0  0  0
    4.5167   -2.8917    0.0000 C   0  0  0  0  0  0  0  0  0  0  0  0
  2  1  1  0
  3  6  1  0
  4  2  2  0
  5  1  2  0
  6  5  1  0
  7  1  1  0
  8 14  1  0
  9  3  2  0
 10  6  2  0
 11  8  1  0
 12 13  2  0
 13 10  1  0
 14 19  1  0
 15  7  1  0
 16  7  1  0
 17  8  2  0
 18  4  1  0
 19 16  1  0
 20 15  1  0
 21 11  1  0
 22 12  1  0
 23 13  1  0
 24 21  2  0
 25 21  1  0
 26 22  1  0
 27 23  1  0
 28 25  2  0
 29 24  1  0
 30 28  1  0
  4  3  1  0
 14 20  1  0
 12  9  1  0
 30 29  2  0
M  END

> <chembl_id>
CHEMBL6380

> <chembl_pref_name>
None

$$$$

     RDKit          2D

 32 35  0  0  0  0  0  0  0  0999 V2000
    3.8125   -6.6042    0.0000 C   0  0  0  0  0  0  0  0  0  0  0  0
    3.8167   -7.4375    0.0000 N   0  0  0  0  0  0  0  0  0  0  0  0
    2.3792   -7.4417    0.0000 C   0  0  0  0  0  0  0  0  0  0  0  0
    3.1042   -7.8542    0.0000 C   0  0  0  0  0  0  0  0  0  0  0  0
    3.0917   -6.2000    0.0000 N   0  0  0  0  0  0  0  0  0  0  0  0
    2.3792   -6.6167    0.0000 C   0  0  0  0  0  0  0  0  0  0  0  0
    4.5250   -6.1917    0.0000 N   0  0  0  0  0  0  0  0  0  0  0  0
    6.6625   -4.9500    0.0000 C   0  0  0  0  0  0  0  0  0  0  0  0
    1.6667   -7.8542    0.0000 C   0  0  0  0  0  0  0  0  0  0  0  0
    6.6542   -4.1250    0.0000 N   0  0  0  0  0  0  0  0  0  0  0  0
    1.6667   -6.2042    0.0000 C   0  0  0  0  0  0  0  0  0  0  0  0
    0.9542   -7.4417    0.0000 C   0  0  0  0  0  0  0  0  0  0  0  0
    0.9542   -6.6167    0.0000 C   0  0  0  0  0  0  0  0  0  0  0  0
    5.9500   -5.3625    0.0000 C   0  0  0  0  0  0  0  0  0  0  0  0
    5.9417   -3.7125    0.0000 C   0  0  0  0  0  0  0  0  0  0  0  0
    4.5167   -5.3667    0.0000 C   0  0  0  0  0  0  0  0  0  0  0  0
    5.2375   -6.6042    0.0000 C   0  0  0  0  0  0  0  0  0  0  0  0
    7.3750   -5.3542    0.0000 O   0  0  0  0  0  0  0  0  0  0  0  0
    3.1042   -8.6792    0.0000 N   0  0  0  0  0  0  0  0  0  0  0  0
    5.9500   -6.1875    0.0000 C   0  0  0  0  0  0  0  0  0  0  0  0
    5.2292   -4.9542    0.0000 C   0  0  0  0  0  0  0  0  0  0  0  0
    0.2417   -7.8542    0.0000 O   0  0  0  0  0  0  0  0  0  0  0  0
    0.2417   -6.2042    0.0000 O   0  0  0  0  0  0  0  0  0  0  0  0
    5.9417   -2.8875    0.0000 C   0  0  0  0  0  0  0  0  0  0  0  0
    7.3750   -3.7042    0.0000 C   0  0  0  0  0  0  0  0  0  0  0  0
    6.6542   -2.4792    0.0000 C   0  0  0  0  0  0  0  0  0  0  0  0
    5.2292   -2.4875    0.0000 C   0  0  0  0  0  0  0  0  0  0  0  0
    0.2417   -8.6792    0.0000 C   0  0  0  0  0  0  0  0  0  0  0  0
    0.2417   -5.3792    0.0000 C   0  0  0  0  0  0  0  0  0  0  0  0
    5.2250   -1.6625    0.0000 C   0  0  0  0  0  0  0  0  0  0  0  0
    6.6542   -1.6542    0.0000 C   0  0  0  0  0  0  0  0  0  0  0  0
    5.9375   -1.2417    0.0000 C   0  0  0  0  0  0  0  0  0  0  0  0
  2  1  1  0
  3  6  1  0
  4  2  2  0
  5  1  2  0
  6  5  1  0
  7  1  1  0
  8 14  1  0
  9  3  2  0
 10  8  1  0
 11  6  2  0
 12 13  2  0
 13 11  1  0
 14 20  1  0
 15 10  1  0
 16  7  1  0
 17  7  1  0
 18  8  2  0
 19  4  1  0
 20 17  1  0
 21 16  1  0
 22 12  1  0
 23 13  1  0
 24 15  1  0
 25 10  1  0
 26 24  2  0
 27 24  1  0
 28 22  1  0
 29 23  1  0
 30 27  2  0
 31 26  1  0
 32 30  1  0
  4  3  1  0
 14 21  1  0
 12  9  1  0
 32 31  2  0
M  END

> <chembl_id>
CHEMBL415288

> <chembl_pref_name>
None

$$$$

     RDKit          2D

 21 24  0  0  0  0  0  0  0  0999 V2000
    6.5667   -2.6417    0.0000 N   0  0  0  0  0  0  0  0  0  0  0  0
    5.8542   -3.0542    0.0000 C   0  0  0  0  0  0  0  0  0  0  0  0
    5.1375   -2.6375    0.0000 C   0  0  0  0  0  0  0  0  0  0  0  0
    5.1417   -1.8125    0.0000 C   0  0  0  0  0  0  0  0  0  0  0  0
    5.8542   -1.3917    0.0000 C   0  0  0  0  0  0  0  0  0  0  0  0
    6.5667   -1.8125    0.0000 C   0  0  0  0  0  0  0  0  0  0  0  0
    6.5625   -4.2917    0.0000 N   0  0  0  0  0  0  0  0  0  0  0  0
    5.8500   -3.8750    0.0000 C   0  0  0  0  0  0  0  0  0  0  0  0
    7.2875   -3.0542    0.0000 C   0  0  0  0  0  0  0  0  0  0  0  0
    5.8542   -0.5750    0.0000 C   0  0  0  0  0  0  0  0  0  0  0  0
    7.2792   -3.8792    0.0000 C   0  0  0  0  0  0  0  0  0  0  0  0
    4.4250   -3.0542    0.0000 C   0  0  0  0  0  0  0  0  0  0  0  0
    4.4250   -1.4000    0.0000 C   0  0  0  0  0  0  0  0  0  0  0  0
    6.5542   -5.1167    0.0000 C   0  0  0  0  0  0  0  0  0  0  0  0
    5.1417   -0.1667    0.0000 C   0  0  0  0  0  0  0  0  0  0  0  0
    6.5667   -0.1542    0.0000 C   0  0  0  0  0  0  0  0  0  0  0  0
    3.7125   -1.8125    0.0000 C   0  0  0  0  0  0  0  0  0  0  0  0
    3.7125   -2.6417    0.0000 C   0  0  0  0  0  0  0  0  0  0  0  0
    6.5667    0.6625    0.0000 C   0  0  0  0  0  0  0  0  0  0  0  0
    5.1417    0.6583    0.0000 C   0  0  0  0  0  0  0  0  0  0  0  0
    5.8542    1.0750    0.0000 C   0  0  0  0  0  0  0  0  0  0  0  0
  2  1  1  0
  3  2  1  0
  4  5  1  0
  5  6  1  0
  6  1  1  0
  7 11  1  0
  8  2  1  0
  9  1  1  0
 10  5  1  0
 11  9  1  0
 12  3  2  0
 13  4  2  0
 14  7  1  0
 15 10  1  0
 16 10  2  0
 17 13  1  0
 18 12  1  0
 19 16  1  0
 20 15  2  0
 21 19  2  0
  8  7  1  0
  4  3  1  0
 17 18  2  0
 20 21  1  0
M  END

> <chembl_id>
CHEMBL6627

> <chembl_pref_name>
None

$$$$

     RDKit          2D

 23 26  0  0  0  0  0  0  0  0999 V2000
    7.0042   -3.6125    0.0000 N   0  0  0  0  0  0  0  0  0  0  0  0
    6.2875   -4.0250    0.0000 C   0  0  0  0  0  0  0  0  0  0  0  0
    5.5667   -3.6042    0.0000 C   0  0  0  0  0  0  0  0  0  0  0  0
    5.5750   -2.7792    0.0000 C   0  0  0  0  0  0  0  0  0  0  0  0
    6.2875   -2.3667    0.0000 C   0  0  0  0  0  0  0  0  0  0  0  0
    7.0042   -2.7792    0.0000 C   0  0  0  0  0  0  0  0  0  0  0  0
    6.9917   -5.2625    0.0000 N   0  0  0  0  0  0  0  0  0  0  0  0
    6.2792   -4.8417    0.0000 C   0  0  0  0  0  0  0  0  0  0  0  0
    7.7167   -4.0250    0.0000 C   0  0  0  0  0  0  0  0  0  0  0  0
    6.2875   -1.5417    0.0000 C   0  0  0  0  0  0  0  0  0  0  0  0
    7.7125   -4.8542    0.0000 C   0  0  0  0  0  0  0  0  0  0  0  0
    4.8542   -4.0250    0.0000 C   0  0  0  0  0  0  0  0  0  0  0  0
    4.8542   -2.3667    0.0000 C   0  0  0  0  0  0  0  0  0  0  0  0
    6.9917   -6.0875    0.0000 C   0  0  0  0  0  0  0  0  0  0  0  0
    5.5750   -1.1375    0.0000 C   0  0  0  0  0  0  0  0  0  0  0  0
    7.0042   -1.1292    0.0000 C   0  0  0  0  0  0  0  0  0  0  0  0
    6.2750   -6.5000    0.0000 C   0  0  0  0  0  0  0  0  0  0  0  0
    4.1417   -3.6125    0.0000 C   0  0  0  0  0  0  0  0  0  0  0  0
    4.1417   -2.7875    0.0000 C   0  0  0  0  0  0  0  0  0  0  0  0
    6.2667   -7.3250    0.0000 C   0  0  0  0  0  0  0  0  0  0  0  0
    7.0042   -0.3042    0.0000 C   0  0  0  0  0  0  0  0  0  0  0  0
    5.5750   -0.3125    0.0000 C   0  0  0  0  0  0  0  0  0  0  0  0
    6.2917    0.1083    0.0000 C   0  0  0  0  0  0  0  0  0  0  0  0
  2  1  1  0
  3  2  1  0
  4  5  1  0
  5  6  1  0
  6  1  1  0
  7 11  1  0
  8  2  1  0
  9  1  1  0
 10  5  1  0
 11  9  1  0
 12  3  2  0
 13  4  2  0
 14  7  1  0
 15 10  1  0
 16 10  2  0
 17 14  1  0
 18 12  1  0
 19 13  1  0
 20 17  1  0
 21 16  1  0
 22 15  2  0
 23 21  2  0
  8  7  1  0
  4  3  1  0
 19 18  2  0
 23 22  1  0
M  END

> <chembl_id>
CHEMBL404992

> <chembl_pref_name>
None

$$$$

     RDKit          2D

 26 28  0  0  0  0  0  0  0  0999 V2000
    4.3250   -3.9667    0.0000 S   0  0  0  0  0  0  0  0  0  0  0  0
    5.0375   -4.3792    0.0000 N   0  0  0  0  0  0  0  0  0  0  0  0
    5.7500   -3.9542    0.0000 C   0  0  0  0  0  0  0  0  0  0  0  0
    4.3250   -3.1375    0.0000 C   0  0  0  0  0  0  0  0  0  0  0  0
    3.6042   -2.7250    0.0000 C   0  0  0  0  0  0  0  0  0  0  0  0
    3.6042   -1.8917    0.0000 C   0  0  0  0  0  0  0  0  0  0  0  0
    7.1875   -3.9500    0.0000 N   0  0  0  0  0  0  0  0  0  0  0  0
    5.7417   -3.1250    0.0000 N   0  0  0  0  0  0  0  0  0  0  0  0
    2.8792   -1.4792    0.0000 C   0  0  0  0  0  0  0  0  0  0  0  0
    6.4792   -4.3667    0.0000 C   0  0  0  0  0  0  0  0  0  0  0  0
    3.4917   -3.9542    0.0000 O   0  0  0  0  0  0  0  0  0  0  0  0
    4.3167   -4.7875    0.0000 O   0  0  0  0  0  0  0  0  0  0  0  0
    7.1875   -3.1167    0.0000 C   0  0  0  0  0  0  0  0  0  0  0  0
    2.8792   -0.6500    0.0000 N   0  0  0  0  0  0  0  0  0  0  0  0
    6.4625   -2.7042    0.0000 C   0  0  0  0  0  0  0  0  0  0  0  0
    7.8917   -2.7042    0.0000 Br  0  0  0  0  0  0  0  0  0  0  0  0
    5.0417   -2.7167    0.0000 C   0  0  0  0  0  0  0  0  0  0  0  0
    2.8792   -3.1417    0.0000 C   0  0  0  0  0  0  0  0  0  0  0  0
    4.3167   -1.4750    0.0000 C   0  0  0  0  0  0  0  0  0  0  0  0
    2.1667   -1.8917    0.0000 C   0  0  0  0  0  0  0  0  0  0  0  0
    5.0417   -1.8917    0.0000 C   0  0  0  0  0  0  0  0  0  0  0  0
    2.1667   -2.7250    0.0000 C   0  0  0  0  0  0  0  0  0  0  0  0
    6.4792   -5.2000    0.0000 C   0  0  0  0  0  0  0  0  0  0  0  0
    3.6042   -0.2167    0.0000 C   0  0  0  0  0  0  0  0  0  0  0  0
    2.1625   -0.2292    0.0000 C   0  0  0  0  0  0  0  0  0  0  0  0
    7.2042   -5.6125    0.0000 C   0  0  0  0  0  0  0  0  0  0  0  0
  2  1  1  0
  3  2  1  0
  4  1  1  0
  5  4  1  0
  6  5  2  0
  7 10  2  0
  8  3  2  0
  9  6  1  0
 10  3  1  0
 11  1  2  0
 12  1  2  0
 13  7  1  0
 14  9  1  0
 15  8  1  0
 16 13  1  0
 17  4  2  0
 18  5  1  0
 19 21  2  0
 20 22  1  0
 21 17  1  0
 22 18  2  0
 23 10  1  0
 24 14  1  0
 25 14  1  0
 26 23  1  0
 19  6  1  0
 13 15  2  0
 20  9  2  0
M  END

> <chembl_id>
CHEMBL6543

> <chembl_pref_name>
None

$$$$

     RDKit          2D

 29 32  0  0  0  0  0  0  0  0999 V2000
    3.8125   -6.6042    0.0000 C   0  0  0  0  0  0  0  0  0  0  0  0
    3.8167   -7.4375    0.0000 N   0  0  0  0  0  0  0  0  0  0  0  0
    2.3792   -7.4417    0.0000 C   0  0  0  0  0  0  0  0  0  0  0  0
    3.1042   -7.8542    0.0000 C   0  0  0  0  0  0  0  0  0  0  0  0
    3.0917   -6.2000    0.0000 N   0  0  0  0  0  0  0  0  0  0  0  0
    2.3792   -6.6167    0.0000 C   0  0  0  0  0  0  0  0  0  0  0  0
    4.5250   -6.1917    0.0000 N   0  0  0  0  0  0  0  0  0  0  0  0
    1.6667   -7.8542    0.0000 C   0  0  0  0  0  0  0  0  0  0  0  0
    1.6667   -6.2042    0.0000 C   0  0  0  0  0  0  0  0  0  0  0  0
    0.9542   -7.4417    0.0000 C   0  0  0  0  0  0  0  0  0  0  0  0
    0.9542   -6.6167    0.0000 C   0  0  0  0  0  0  0  0  0  0  0  0
    6.6542   -4.1250    0.0000 C   0  0  0  0  0  0  0  0  0  0  0  0
    5.3542   -2.3042    0.0000 C   0  0  0  0  0  0  0  0  0  0  0  0
    5.1292   -1.5042    0.0000 C   0  0  0  0  0  0  0  0  0  0  0  0
    4.5417   -2.1000    0.0000 C   0  0  0  0  0  0  0  0  0  0  0  0
    5.9417   -3.7125    0.0000 N   0  0  0  0  0  0  0  0  0  0  0  0
    4.5167   -5.3667    0.0000 C   0  0  0  0  0  0  0  0  0  0  0  0
    5.2375   -6.6042    0.0000 C   0  0  0  0  0  0  0  0  0  0  0  0
    7.3750   -3.7042    0.0000 O   0  0  0  0  0  0  0  0  0  0  0  0
    3.1042   -8.6792    0.0000 N   0  0  0  0  0  0  0  0  0  0  0  0
    5.9417   -2.8875    0.0000 C   0  0  0  0  0  0  0  0  0  0  0  0
    6.6625   -4.9500    0.0000 C   0  0  0  0  0  0  0  0  0  0  0  0
    0.2417   -7.8542    0.0000 O   0  0  0  0  0  0  0  0  0  0  0  0
    0.2417   -6.2042    0.0000 O   0  0  0  0  0  0  0  0  0  0  0  0
    5.9500   -6.1875    0.0000 C   0  0  0  0  0  0  0  0  0  0  0  0
    5.2292   -4.9542    0.0000 C   0  0  0  0  0  0  0  0  0  0  0  0
    5.9500   -5.3625    0.0000 C   0  0  0  0  0  0  0  0  0  0  0  0
    0.2417   -8.6792    0.0000 C   0  0  0  0  0  0  0  0  0  0  0  0
    0.2417   -5.3792    0.0000 C   0  0  0  0  0  0  0  0  0  0  0  0
  2  1  1  0
  3  6  1  0
  4  2  2  0
  5  1  2  0
  6  5  1  0
  7  1  1  0
  8  3  2  0
  9  6  2  0
 10 11  2  0
 11  9  1  0
 12 22  1  0
 13 21  1  0
 14 13  1  0
 15 13  1  0
 16 12  1  0
 17  7  1  0
 18  7  1  0
 19 12  2  0
 20  4  1  0
 21 16  1  0
 22 27  1  0
 23 10  1  0
 24 11  1  0
 25 18  1  0
 26 17  1  0
 27 25  1  0
 28 23  1  0
 29 24  1  0
  4  3  1  0
 27 26  1  0
 10  8  1  0
 14 15  1  0
M  END

> <chembl_id>
CHEMBL269537

> <chembl_pref_name>
None

$$$$

     RDKit          2D

 13 14  0  0  0  0  0  0  0  0999 V2000
    0.0292   -0.8250    0.0000 C   0  0  0  0  0  0  0  0  0  0  0  0
   -0.4833   -1.1250    0.0000 C   0  0  0  0  0  0  0  0  0  0  0  0
    0.0292   -0.2167    0.0000 C   0  0  0  0  0  0  0  0  0  0  0  0
   -1.0083   -0.8250    0.0000 C   0  0  0  0  0  0  0  0  0  0  0  0
   -0.4833    0.0750    0.0000 C   0  0  0  0  0  0  0  0  0  0  0  0
   -1.5250   -1.1250    0.0000 C   0  0  0  0  0  0  0  0  0  0  0  0
   -1.0083   -0.2167    0.0000 C   0  0  0  0  0  0  0  0  0  0  0  0
   -2.0500   -0.2167    0.0000 N   0  0  0  0  0  0  0  0  0  0  0  0
    0.6042   -1.0042    0.0000 C   0  0  0  0  0  0  0  0  0  0  0  0
   -2.0458   -0.8250    0.0000 C   0  0  0  0  0  0  0  0  0  0  0  0
    0.9542   -0.5250    0.0000 C   0  0  0  0  0  0  0  0  0  0  0  0
    0.6042   -0.0292    0.0000 C   0  0  0  0  0  0  0  0  0  0  0  0
   -2.5625   -1.1250    0.0000 C   0  0  0  0  0  0  0  0  0  0  0  0
  2  1  2  0
  3  1  1  0
  4  2  1  0
  5  3  2  0
  6  4  1  0
  7  5  1  0
  8 10  1  0
  9  1  1  0
 10  6  1  0
 11  9  1  0
 12  3  1  0
 13 10  1  0
 11 12  1  0
  4  7  2  0
M  END

> <chembl_id>
CHEMBL6842

> <chembl_pref_name>
None

$$$$

     RDKit          2D

 22 23  0  0  0  0  0  0  0  0999 V2000
    3.8375   -2.4667    0.0000 C   0  0  0  0  0  0  0  0  0  0  0  0
    2.4042   -3.3000    0.0000 C   0  0  0  0  0  0  0  0  0  0  0  0
    3.1167   -3.7125    0.0000 C   0  0  0  0  0  0  0  0  0  0  0  0
    2.4042   -2.4750    0.0000 C   0  0  0  0  0  0  0  0  0  0  0  0
    4.5500   -2.0542    0.0000 C   0  0  0  0  0  0  0  0  0  0  0  0
    3.1167   -2.0542    0.0000 C   0  0  0  0  0  0  0  0  0  0  0  0
    3.8375   -3.3000    0.0000 C   0  0  0  0  0  0  0  0  0  0  0  0
    5.2667   -2.4625    0.0000 C   0  0  0  0  0  0  0  0  0  0  0  0
    5.9792   -2.0500    0.0000 C   0  0  0  0  0  0  0  0  0  0  0  0
    6.6917   -2.4625    0.0000 C   0  0  0  0  0  0  0  0  0  0  0  0
    5.9667   -1.2292    0.0000 C   0  0  0  0  0  0  0  0  0  0  0  0
    1.6917   -2.0625    0.0000 I   0  0  0  0  0  0  0  0  0  0  0  0
    3.1167   -4.5375    0.0000 I   0  0  0  0  0  0  0  0  0  0  0  0
    1.6917   -3.7042    0.0000 O   0  0  0  0  0  0  0  0  0  0  0  0
    7.4042   -1.2167    0.0000 C   0  0  0  0  0  0  0  0  0  0  0  0
    7.4042   -2.0417    0.0000 C   0  0  0  0  0  0  0  0  0  0  0  0
    6.6792   -0.8125    0.0000 C   0  0  0  0  0  0  0  0  0  0  0  0
    8.1125   -0.8042    0.0000 O   0  0  0  0  0  0  0  0  0  0  0  0
    4.5417   -1.2292    0.0000 C   0  0  0  0  0  0  0  0  0  0  0  0
    5.2667   -3.2875    0.0000 C   0  0  0  0  0  0  0  0  0  0  0  0
    3.8292   -0.8167    0.0000 C   0  0  0  0  0  0  0  0  0  0  0  0
    5.9792   -3.7000    0.0000 C   0  0  0  0  0  0  0  0  0  0  0  0
  2  3  1  0
  3  7  2  0
  4  6  1  0
  5  1  1  0
  6  1  2  0
  7  1  1  0
  8  5  1  0
  9  8  1  0
 10  9  2  0
 11  9  1  0
 12  4  1  0
 13  3  1  0
 14  2  1  0
 15 17  1  0
 16 10  1  0
 17 11  2  0
 18 15  1  0
 19  5  1  0
 20  8  1  0
 21 19  1  0
 22 20  1  0
  4  2  2  0
 16 15  2  0
M  END

> <chembl_id>
CHEMBL6664

> <chembl_pref_name>
None

$$$$

     RDKit          2D

 21 22  0  0  0  0  0  0  0  0999 V2000
    3.8625   -4.0042    0.0000 C   0  0  0  0  0  0  0  0  0  0  0  0
    4.5750   -3.5875    0.0000 C   0  0  0  0  0  0  0  0  0  0  0  0
    5.2917   -3.9917    0.0000 C   0  0  0  0  0  0  0  0  0  0  0  0
    3.1417   -3.5917    0.0000 C   0  0  0  0  0  0  0  0  0  0  0  0
    2.4292   -4.0042    0.0000 C   0  0  0  0  0  0  0  0  0  0  0  0
    6.0042   -3.5792    0.0000 C   0  0  0  0  0  0  0  0  0  0  0  0
    2.4292   -4.8292    0.0000 C   0  0  0  0  0  0  0  0  0  0  0  0
    3.8625   -4.8292    0.0000 C   0  0  0  0  0  0  0  0  0  0  0  0
    3.1417   -5.2417    0.0000 C   0  0  0  0  0  0  0  0  0  0  0  0
    6.7167   -3.9917    0.0000 C   0  0  0  0  0  0  0  0  0  0  0  0
    5.9917   -2.7625    0.0000 C   0  0  0  0  0  0  0  0  0  0  0  0
    1.7167   -3.5917    0.0000 Br  0  0  0  0  0  0  0  0  0  0  0  0
    7.4292   -2.7542    0.0000 C   0  0  0  0  0  0  0  0  0  0  0  0
    7.4292   -3.5792    0.0000 C   0  0  0  0  0  0  0  0  0  0  0  0
    6.7042   -2.3417    0.0000 C   0  0  0  0  0  0  0  0  0  0  0  0
    1.7167   -5.2417    0.0000 O   0  0  0  0  0  0  0  0  0  0  0  0
    8.1375   -2.3375    0.0000 O   0  0  0  0  0  0  0  0  0  0  0  0
    4.5667   -2.7625    0.0000 C   0  0  0  0  0  0  0  0  0  0  0  0
    5.2917   -4.8167    0.0000 C   0  0  0  0  0  0  0  0  0  0  0  0
    6.0042   -5.2292    0.0000 C   0  0  0  0  0  0  0  0  0  0  0  0
    3.8542   -2.3542    0.0000 C   0  0  0  0  0  0  0  0  0  0  0  0
  2  1  1  0
  3  2  1  0
  4  1  2  0
  5  4  1  0
  6  3  1  0
  7  9  1  0
  8  1  1  0
  9  8  2  0
 10  6  2  0
 11  6  1  0
 12  5  1  0
 13 15  1  0
 14 10  1  0
 15 11  2  0
 16  7  1  0
 17 13  1  0
 18  2  1  0
 19  3  1  0
 20 19  1  0
 21 18  1  0
  5  7  2  0
 14 13  2  0
M  END

> <chembl_id>
CHEMBL6732

> <chembl_pref_name>
None

$$$$

     RDKit          2D

 36 39  0  0  0  0  0  0  0  0999 V2000
   -0.1208   -2.1625    0.0000 C   0  0  0  0  0  0  0  0  0  0  0  0
   -0.8208   -1.7500    0.0000 C   0  0  0  0  0  0  0  0  0  0  0  0
   -0.1208   -2.9875    0.0000 C   0  0  0  0  0  0  0  0  0  0  0  0
    0.5917   -1.7542    0.0000 C   0  0  0  0  0  0  0  0  0  0  0  0
    8.4167   -0.4917    0.0000 N   0  0  0  0  0  0  0  0  0  0  0  0
   -0.8208   -0.9167    0.0000 C   0  0  0  0  0  0  0  0  0  0  0  0
    0.5792   -3.4042    0.0000 C   0  0  0  0  0  0  0  0  0  0  0  0
    0.6042   -0.9417    0.0000 C   0  0  0  0  0  0  0  0  0  0  0  0
    1.3042   -2.1792    0.0000 C   0  0  0  0  0  0  0  0  0  0  0  0
   -0.8458   -3.3917    0.0000 C   0  0  0  0  0  0  0  0  0  0  0  0
   -0.1458   -4.6292    0.0000 C   0  0  0  0  0  0  0  0  0  0  0  0
    2.0292   -0.9542    0.0000 C   0  0  0  0  0  0  0  0  0  0  0  0
   -0.8458   -4.2125    0.0000 C   0  0  0  0  0  0  0  0  0  0  0  0
    0.5792   -4.2292    0.0000 C   0  0  0  0  0  0  0  0  0  0  0  0
    2.0292   -1.7750    0.0000 C   0  0  0  0  0  0  0  0  0  0  0  0
    1.3292   -0.5417    0.0000 C   0  0  0  0  0  0  0  0  0  0  0  0
   -0.1458   -5.4667    0.0000 I   0  0  0  0  0  0  0  0  0  0  0  0
   -1.5458   -2.1542    0.0000 C   0  0  0  0  0  0  0  0  0  0  0  0
    2.7417   -0.5500    0.0000 O   0  0  0  0  0  0  0  0  0  0  0  0
    7.7042   -0.9167    0.0000 C   0  0  0  0  0  0  0  0  0  0  0  0
    9.1667   -0.8167    0.0000 C   0  0  0  0  0  0  0  0  0  0  0  0
    8.4917    0.3333    0.0000 C   0  0  0  0  0  0  0  0  0  0  0  0
   -0.0958   -0.5167    0.0000 C   0  0  0  0  0  0  0  0  0  0  0  0
   -1.5333   -0.4875    0.0000 C   0  0  0  0  0  0  0  0  0  0  0  0
    3.4417   -0.9542    0.0000 C   0  0  0  0  0  0  0  0  0  0  0  0
    6.9917   -0.5167    0.0000 C   0  0  0  0  0  0  0  0  0  0  0  0
   -1.5458   -2.9667    0.0000 C   0  0  0  0  0  0  0  0  0  0  0  0
    4.1542   -0.5417    0.0000 C   0  0  0  0  0  0  0  0  0  0  0  0
    4.8667   -0.9542    0.0000 C   0  0  0  0  0  0  0  0  0  0  0  0
    5.5792   -0.5417    0.0000 C   0  0  0  0  0  0  0  0  0  0  0  0
    6.2917   -0.9417    0.0000 C   0  0  0  0  0  0  0  0  0  0  0  0
    9.2917    0.5083    0.0000 C   0  0  0  0  0  0  0  0  0  0  0  0
    9.7167   -0.2000    0.0000 C   0  0  0  0  0  0  0  0  0  0  0  0
   -1.5208    0.3250    0.0000 C   0  0  0  0  0  0  0  0  0  0  0  0
   -0.0833    0.3125    0.0000 C   0  0  0  0  0  0  0  0  0  0  0  0
   -0.7958    0.7333    0.0000 C   0  0  0  0  0  0  0  0  0  0  0  0
  2  1  2  0
  3  1  1  0
  4  1  1  0
  5 20  1  0
  6  2  1  0
  7  3  1  0
  8  4  1  0
  9  4  2  0
 10  3  2  0
 11 13  2  0
 12 15  2  0
 13 10  1  0
 14  7  2  0
 15  9  1  0
 16  8  2  0
 17 11  1  0
 18  2  1  0
 19 12  1  0
 20 26  1  0
 21  5  1  0
 22  5  1  0
 23  6  1  0
 24  6  2  0
 25 19  1  0
 26 31  1  0
 27 18  1  0
 28 25  1  0
 29 28  1  0
 30 29  1  0
 31 30  1  0
 32 22  1  0
 33 21  1  0
 34 24  1  0
 35 23  2  0
 36 34  2  0
 12 16  1  0
 14 11  1  0
 36 35  1  0
 33 32  1  0
M  END

> <chembl_id>
CHEMBL267600

> <chembl_pref_name>
None

$$$$

     RDKit          2D

 31 33  0  0  1  0  0  0  0  0999 V2000
   -4.5333   -0.4500    0.0000 C   0  0  0  0  0  0  0  0  0  0  0  0
   -3.8250   -0.8625    0.0000 C   0  0  0  0  0  0  0  0  0  0  0  0
   -5.2458   -0.8542    0.0000 N   0  0  0  0  0  0  0  0  0  0  0  0
   -4.5458   -2.0917    0.0000 N   0  0  0  0  0  0  0  0  0  0  0  0
   -3.8333   -1.6792    0.0000 C   0  0  0  0  0  0  0  0  0  0  0  0
   -5.2500   -1.6750    0.0000 C   0  0  0  0  0  0  0  0  0  0  0  0
    1.8792    0.8125    0.0000 C   0  0  0  0  0  0  0  0  0  0  0  0
    2.5917    0.4083    0.0000 N   0  0  0  0  0  0  0  0  0  0  0  0
    4.0167    0.4083    0.0000 C   0  0  0  0  0  0  0  0  0  0  0  0
   -0.9708   -0.8417    0.0000 N   0  0  0  0  0  0  0  0  0  0  0  0
   -0.2750   -2.1125    0.0000 C   0  0  0  0  0  0  0  0  0  0  0  0
    0.4292   -2.5542    0.0000 C   0  0  0  0  0  0  0  0  0  0  0  0
   -3.1208   -0.4417    0.0000 C   0  0  0  0  0  0  0  0  0  0  0  0
    3.3042    0.8208    0.0000 C   0  0  0  0  0  0  0  0  0  0  0  0
    1.1667    0.3958    0.0000 C   0  0  0  0  0  0  0  0  0  0  0  0
   -0.2583   -0.4292    0.0000 C   0  0  0  0  0  0  0  0  0  0  0  0
   -4.5333    0.3750    0.0000 O   0  0  0  0  0  0  0  0  0  0  0  0
   -1.6875   -0.4375    0.0000 C   0  0  0  0  0  0  0  0  0  0  0  0
    1.8750    1.6375    0.0000 O   0  0  0  0  0  0  0  0  0  0  0  0
   -2.4000   -0.8542    0.0000 C   0  0  0  0  0  0  0  0  0  0  0  0
    4.0250   -0.4167    0.0000 O   0  0  0  0  0  0  0  0  0  0  0  0
   -3.1208   -2.0917    0.0000 C   0  0  0  0  0  0  0  0  0  0  0  0
    1.1667   -0.4292    0.0000 C   0  0  0  0  0  0  0  0  0  0  0  0
    0.4417    0.8083    0.0000 C   0  0  0  0  0  0  0  0  0  0  0  0
    0.4542   -0.8417    0.0000 C   0  0  0  0  0  0  0  0  0  0  0  0
   -0.2708    0.3875    0.0000 C   0  0  0  0  0  0  0  0  0  0  0  0
   -0.9708   -1.6667    0.0000 C   0  0  0  0  0  0  0  0  0  0  0  0
    4.7292    0.8250    0.0000 O   0  0  0  0  0  0  0  0  0  0  0  0
   -2.4000   -1.6792    0.0000 C   0  0  0  0  0  0  0  0  0  0  0  0
   -5.9708   -2.0792    0.0000 C   0  0  0  0  0  0  0  0  0  0  0  0
    3.3000    1.6458    0.0000 C   0  0  0  0  0  0  0  0  0  0  0  0
  2  1  1  0
  3  1  2  0
  4  6  2  0
  5  2  2  0
  6  3  1  0
  7 15  1  0
  8  7  1  0
  9 14  1  0
 10 18  1  0
 11 27  1  0
 12 11  3  0
 13  2  1  0
 14  8  1  0
 15 24  1  0
 16 10  1  0
 17  1  1  0
 18 20  1  0
 19  7  2  0
 20 13  2  0
 21  9  2  0
 22  5  1  0
 23 25  1  0
 24 26  2  0
 25 16  2  0
 26 16  1  0
 27 10  1  0
 28  9  1  0
 29 20  1  0
 30  6  1  0
 14 31  1  6
  4  5  1  0
 29 22  2  0
 15 23  2  0
M  END

> <chembl_id>
CHEMBL266508

> <chembl_pref_name>
None

$$$$

     RDKit          2D

 33 35  0  0  1  0  0  0  0  0999 V2000
   -6.0292   -0.2125    0.0000 C   0  0  0  0  0  0  0  0  0  0  0  0
   -5.3333   -0.6250    0.0000 C   0  0  0  0  0  0  0  0  0  0  0  0
   -6.7417   -0.6167    0.0000 N   0  0  0  0  0  0  0  0  0  0  0  0
   -6.0417   -1.8542    0.0000 N   0  0  0  0  0  0  0  0  0  0  0  0
   -5.3333   -1.4417    0.0000 C   0  0  0  0  0  0  0  0  0  0  0  0
   -6.7500   -1.4375    0.0000 C   0  0  0  0  0  0  0  0  0  0  0  0
    0.3792    1.0500    0.0000 C   0  0  0  0  0  0  0  0  0  0  0  0
    1.0917    0.6458    0.0000 N   0  0  0  0  0  0  0  0  0  0  0  0
    2.5167    0.6458    0.0000 C   0  0  0  0  0  0  0  0  0  0  0  0
   -2.4708   -0.6042    0.0000 N   0  0  0  0  0  0  0  0  0  0  0  0
   -1.7833   -1.8750    0.0000 C   0  0  0  0  0  0  0  0  0  0  0  0
   -1.0799   -2.3311    0.0000 C   0  0  0  0  0  0  0  0  0  0  0  0
   -4.6208   -0.2042    0.0000 C   0  0  0  0  0  0  0  0  0  0  0  0
    1.8042    1.0583    0.0000 C   0  0  0  0  0  0  0  0  0  0  0  0
   -0.3333    0.6333    0.0000 C   0  0  0  0  0  0  0  0  0  0  0  0
   -1.7583   -0.1917    0.0000 C   0  0  0  0  0  0  0  0  0  0  0  0
   -6.0250    0.6125    0.0000 O   0  0  0  0  0  0  0  0  0  0  0  0
   -3.1875   -0.2000    0.0000 C   0  0  0  0  0  0  0  0  0  0  0  0
    0.3750    1.8750    0.0000 O   0  0  0  0  0  0  0  0  0  0  0  0
   -3.9000   -0.6167    0.0000 C   0  0  0  0  0  0  0  0  0  0  0  0
    2.5250   -0.1792    0.0000 O   0  0  0  0  0  0  0  0  0  0  0  0
   -4.6208   -1.8542    0.0000 C   0  0  0  0  0  0  0  0  0  0  0  0
   -0.3333   -0.1917    0.0000 C   0  0  0  0  0  0  0  0  0  0  0  0
   -1.0583    1.0458    0.0000 C   0  0  0  0  0  0  0  0  0  0  0  0
   -1.0458   -0.6042    0.0000 C   0  0  0  0  0  0  0  0  0  0  0  0
   -1.7708    0.6250    0.0000 C   0  0  0  0  0  0  0  0  0  0  0  0
   -2.4708   -1.4292    0.0000 C   0  0  0  0  0  0  0  0  0  0  0  0
    3.2292    1.0625    0.0000 O   0  0  0  0  0  0  0  0  0  0  0  0
   -3.9000   -1.4417    0.0000 C   0  0  0  0  0  0  0  0  0  0  0  0
   -7.4667   -1.8417    0.0000 C   0  0  0  0  0  0  0  0  0  0  0  0
    1.8000    1.8833    0.0000 C   0  0  0  0  0  0  0  0  0  0  0  0
    2.5042    2.2958    0.0000 C   0  0  0  0  0  0  0  0  0  0  0  0
    2.5042    3.1208    0.0000 C   0  0  0  0  0  0  0  0  0  0  0  0
  2  1  1  0
  3  1  2  0
  4  6  2  0
  5  2  2  0
  6  3  1  0
  7 15  1  0
  8  7  1  0
  9 14  1  0
 10 18  1  0
 11 27  1  0
 12 11  3  0
 13  2  1  0
 14  8  1  0
 15 24  1  0
 16 10  1  0
 17  1  1  0
 18 20  1  0
 19  7  2  0
 20 13  2  0
 21  9  2  0
 22  5  1  0
 23 25  1  0
 24 26  2  0
 25 16  2  0
 26 16  1  0
 27 10  1  0
 28  9  1  0
 29 20  1  0
 30  6  1  0
 14 31  1  6
 32 31  1  0
 33 32  1  0
  4  5  1  0
 29 22  2  0
 15 23  2  0
M  END

> <chembl_id>
CHEMBL6788

> <chembl_pref_name>
None

$$$$

     RDKit          2D

 29 31  0  0  0  0  0  0  0  0999 V2000
    3.8125   -6.6042    0.0000 C   0  0  0  0  0  0  0  0  0  0  0  0
    3.8167   -7.4375    0.0000 N   0  0  0  0  0  0  0  0  0  0  0  0
    2.3792   -7.4417    0.0000 C   0  0  0  0  0  0  0  0  0  0  0  0
    3.1042   -7.8542    0.0000 C   0  0  0  0  0  0  0  0  0  0  0  0
    3.0917   -6.2000    0.0000 N   0  0  0  0  0  0  0  0  0  0  0  0
    2.3792   -6.6167    0.0000 C   0  0  0  0  0  0  0  0  0  0  0  0
    4.5250   -6.1917    0.0000 N   0  0  0  0  0  0  0  0  0  0  0  0
    1.6667   -7.8542    0.0000 C   0  0  0  0  0  0  0  0  0  0  0  0
    1.6667   -6.2042    0.0000 C   0  0  0  0  0  0  0  0  0  0  0  0
    0.9542   -7.4417    0.0000 C   0  0  0  0  0  0  0  0  0  0  0  0
    0.9542   -6.6167    0.0000 C   0  0  0  0  0  0  0  0  0  0  0  0
    6.6542   -4.1250    0.0000 C   0  0  0  0  0  0  0  0  0  0  0  0
    4.5167   -5.3667    0.0000 C   0  0  0  0  0  0  0  0  0  0  0  0
    5.2375   -6.6042    0.0000 C   0  0  0  0  0  0  0  0  0  0  0  0
    7.3750   -3.7042    0.0000 O   0  0  0  0  0  0  0  0  0  0  0  0
    3.1042   -8.6792    0.0000 N   0  0  0  0  0  0  0  0  0  0  0  0
    5.9417   -3.7125    0.0000 N   0  0  0  0  0  0  0  0  0  0  0  0
    6.6625   -4.9500    0.0000 C   0  0  0  0  0  0  0  0  0  0  0  0
    0.2417   -7.8542    0.0000 O   0  0  0  0  0  0  0  0  0  0  0  0
    0.2417   -6.2042    0.0000 O   0  0  0  0  0  0  0  0  0  0  0  0
    5.9500   -6.1875    0.0000 C   0  0  0  0  0  0  0  0  0  0  0  0
    5.2292   -4.9542    0.0000 C   0  0  0  0  0  0  0  0  0  0  0  0
    5.9500   -5.3625    0.0000 C   0  0  0  0  0  0  0  0  0  0  0  0
    5.9417   -2.8875    0.0000 C   0  0  0  0  0  0  0  0  0  0  0  0
    0.2417   -5.3792    0.0000 C   0  0  0  0  0  0  0  0  0  0  0  0
    0.2417   -8.6792    0.0000 C   0  0  0  0  0  0  0  0  0  0  0  0
    5.3542   -2.3042    0.0000 C   0  0  0  0  0  0  0  0  0  0  0  0
    5.5625   -1.5042    0.0000 C   0  0  0  0  0  0  0  0  0  0  0  0
    4.9750   -0.9292    0.0000 C   0  0  0  0  0  0  0  0  0  0  0  0
  2  1  1  0
  3  6  1  0
  4  2  2  0
  5  1  2  0
  6  5  1  0
  7  1  1  0
  8  3  2  0
  9  6  2  0
 10 11  2  0
 11  9  1  0
 12 18  1  0
 13  7  1  0
 14  7  1  0
 15 12  2  0
 16  4  1  0
 17 12  1  0
 18 23  1  0
 19 10  1  0
 20 11  1  0
 21 14  1  0
 22 13  1  0
 23 21  1  0
 24 17  1  0
 25 20  1  0
 26 19  1  0
 27 24  1  0
 28 27  1  0
 29 28  1  0
  4  3  1  0
 23 22  1  0
 10  8  1  0
M  END

> <chembl_id>
CHEMBL6789

> <chembl_pref_name>
None

$$$$

     RDKit          2D

 24 26  0  0  0  0  0  0  0  0999 V2000
    4.4042   -4.0917    0.0000 S   0  0  0  0  0  0  0  0  0  0  0  0
    5.1167   -4.5042    0.0000 N   0  0  0  0  0  0  0  0  0  0  0  0
    4.4042   -3.2667    0.0000 C   0  0  0  0  0  0  0  0  0  0  0  0
    3.6792   -2.8500    0.0000 C   0  0  0  0  0  0  0  0  0  0  0  0
    3.6792   -2.0167    0.0000 C   0  0  0  0  0  0  0  0  0  0  0  0
    2.9542   -1.6042    0.0000 C   0  0  0  0  0  0  0  0  0  0  0  0
    5.8292   -4.0917    0.0000 C   0  0  0  0  0  0  0  0  0  0  0  0
    3.5750   -4.0917    0.0000 O   0  0  0  0  0  0  0  0  0  0  0  0
    4.3917   -4.9250    0.0000 O   0  0  0  0  0  0  0  0  0  0  0  0
    5.8250   -3.2542    0.0000 N   0  0  0  0  0  0  0  0  0  0  0  0
    2.9542   -0.7667    0.0000 N   0  0  0  0  0  0  0  0  0  0  0  0
    6.5417   -2.8292    0.0000 C   0  0  0  0  0  0  0  0  0  0  0  0
    7.2667   -3.2417    0.0000 C   0  0  0  0  0  0  0  0  0  0  0  0
    6.5542   -4.4917    0.0000 C   0  0  0  0  0  0  0  0  0  0  0  0
    7.9792   -2.8292    0.0000 I   0  0  0  0  0  0  0  0  0  0  0  0
    5.1167   -2.8500    0.0000 C   0  0  0  0  0  0  0  0  0  0  0  0
    4.3917   -1.6042    0.0000 C   0  0  0  0  0  0  0  0  0  0  0  0
    2.9542   -3.2667    0.0000 C   0  0  0  0  0  0  0  0  0  0  0  0
    7.2667   -4.0792    0.0000 C   0  0  0  0  0  0  0  0  0  0  0  0
    2.2500   -2.0167    0.0000 C   0  0  0  0  0  0  0  0  0  0  0  0
    5.1167   -2.0167    0.0000 C   0  0  0  0  0  0  0  0  0  0  0  0
    2.2500   -2.8500    0.0000 C   0  0  0  0  0  0  0  0  0  0  0  0
    2.2292   -0.3542    0.0000 C   0  0  0  0  0  0  0  0  0  0  0  0
    3.6792   -0.3542    0.0000 C   0  0  0  0  0  0  0  0  0  0  0  0
  2  1  1  0
  3  1  1  0
  4  3  1  0
  5  4  2  0
  6  5  1  0
  7  2  1  0
  8  1  2  0
  9  1  2  0
 10  7  2  0
 11  6  1  0
 12 10  1  0
 13 19  1  0
 14  7  1  0
 15 13  1  0
 16  3  2  0
 17 21  2  0
 18  4  1  0
 19 14  2  0
 20 22  1  0
 21 16  1  0
 22 18  2  0
 23 11  1  0
 24 11  1  0
 17  5  1  0
 20  6  2  0
 13 12  2  0
M  END

> <chembl_id>
CHEMBL266684

> <chembl_pref_name>
None

$$$$

     RDKit          2D

 22 23  0  0  0  0  0  0  0  0999 V2000
    3.8625   -4.0042    0.0000 C   0  0  0  0  0  0  0  0  0  0  0  0
    6.0042   -3.5792    0.0000 C   0  0  0  0  0  0  0  0  0  0  0  0
    5.2917   -3.9917    0.0000 C   0  0  0  0  0  0  0  0  0  0  0  0
    4.5750   -3.5875    0.0000 C   0  0  0  0  0  0  0  0  0  0  0  0
    3.1417   -3.5917    0.0000 C   0  0  0  0  0  0  0  0  0  0  0  0
    6.7167   -3.9917    0.0000 C   0  0  0  0  0  0  0  0  0  0  0  0
    2.4292   -4.0042    0.0000 C   0  0  0  0  0  0  0  0  0  0  0  0
    7.4292   -3.5792    0.0000 C   0  0  0  0  0  0  0  0  0  0  0  0
    2.4292   -4.8292    0.0000 C   0  0  0  0  0  0  0  0  0  0  0  0
    7.4292   -2.7542    0.0000 C   0  0  0  0  0  0  0  0  0  0  0  0
    3.8625   -4.8292    0.0000 C   0  0  0  0  0  0  0  0  0  0  0  0
    5.9917   -2.7625    0.0000 C   0  0  0  0  0  0  0  0  0  0  0  0
    6.7042   -2.3417    0.0000 C   0  0  0  0  0  0  0  0  0  0  0  0
    3.1417   -5.2417    0.0000 C   0  0  0  0  0  0  0  0  0  0  0  0
    1.7167   -3.5917    0.0000 Br  0  0  0  0  0  0  0  0  0  0  0  0
    8.1417   -3.9917    0.0000 Br  0  0  0  0  0  0  0  0  0  0  0  0
    8.1375   -2.3375    0.0000 O   0  0  0  0  0  0  0  0  0  0  0  0
    1.7167   -5.2417    0.0000 O   0  0  0  0  0  0  0  0  0  0  0  0
    4.5667   -2.7625    0.0000 C   0  0  0  0  0  0  0  0  0  0  0  0
    5.2917   -4.8167    0.0000 C   0  0  0  0  0  0  0  0  0  0  0  0
    3.8542   -2.3542    0.0000 C   0  0  0  0  0  0  0  0  0  0  0  0
    6.0042   -5.2292    0.0000 C   0  0  0  0  0  0  0  0  0  0  0  0
  2  3  1  0
  3  4  1  0
  4  1  1  0
  5  1  2  0
  6  2  2  0
  7  5  1  0
  8  6  1  0
  9 14  1  0
 10 13  1  0
 11  1  1  0
 12  2  1  0
 13 12  2  0
 14 11  2  0
 15  7  1  0
 16  8  1  0
 17 10  1  0
 18  9  1  0
 19  4  1  0
 20  3  1  0
 21 19  1  0
 22 20  1  0
  7  9  2  0
  8 10  2  0
M  END

> <chembl_id>
CHEMBL6485

> <chembl_pref_name>
None

$$$$

     RDKit          2D

 20 21  0  0  1  0  0  0  0  0999 V2000
    4.6625   -3.2542    0.0000 C   0  0  0  0  0  0  0  0  0  0  0  0
    3.9500   -3.6792    0.0000 C   0  0  0  0  0  0  0  0  0  0  0  0
    5.3875   -4.5042    0.0000 C   0  0  0  0  0  0  0  0  0  0  0  0
    5.3875   -3.6792    0.0000 C   0  0  0  0  0  0  0  0  0  0  0  0
    4.6625   -4.9167    0.0000 O   0  0  0  0  0  0  0  0  0  0  0  0
    3.9500   -4.4917    0.0000 C   0  0  0  0  0  0  0  0  0  0  0  0
    6.1125   -2.2042    0.0000 N   0  0  0  0  0  0  0  0  0  0  0  0
    5.3375   -1.9542    0.0000 C   0  0  0  0  0  0  0  0  0  0  0  0
    6.9125   -2.4167    0.0000 C   0  0  0  0  0  0  0  0  0  0  0  0
    4.6625   -2.4292    0.0000 N   0  0  0  0  0  0  0  0  0  0  0  0
    7.7000   -2.6292    0.0000 N   0  0  0  0  0  0  0  0  0  0  0  0
    2.5250   -3.6792    0.0000 N   0  0  0  0  0  0  0  0  0  0  0  0
    5.0750   -1.1667    0.0000 N   0  0  0  0  0  0  0  0  0  0  0  0
    3.2375   -3.2667    0.0000 C   0  0  0  0  0  0  0  0  0  0  0  0
    6.1000   -3.2667    0.0000 O   0  0  0  0  0  0  0  0  0  0  0  0
    3.2375   -4.9167    0.0000 C   0  0  0  0  0  0  0  0  0  0  0  0
    5.1625   -5.3042    0.0000 C   0  0  0  0  0  0  0  0  0  0  0  0
    6.1000   -4.9167    0.0000 C   0  0  0  0  0  0  0  0  0  0  0  0
    2.5250   -4.5042    0.0000 C   0  0  0  0  0  0  0  0  0  0  0  0
    4.2750   -0.9917    0.0000 C   0  0  0  0  0  0  0  0  0  0  0  0
  2  1  1  0
  3  4  1  0
  4  1  1  0
  5  3  1  0
  6  2  1  0
  7  8  1  0
  8 10  1  0
  9  7  1  0
 10  1  1  0
 11  9  3  0
 12 14  1  0
 13  8  2  0
 14  2  2  0
  4 15  1  6
 16  6  2  0
 17  3  1  0
 18  3  1  0
 19 12  2  0
 20 13  1  0
  6  5  1  0
 16 19  1  0
M  END

> <chembl_id>
CHEMBL266685

> <chembl_pref_name>
None

$$$$

     RDKit          2D

 38 41  0  0  0  0  0  0  0  0999 V2000
    0.4542   -3.3167    0.0000 C   0  0  0  0  0  0  0  0  0  0  0  0
   -0.2458   -2.8917    0.0000 C   0  0  0  0  0  0  0  0  0  0  0  0
    0.4292   -4.1417    0.0000 C   0  0  0  0  0  0  0  0  0  0  0  0
    1.1667   -2.9167    0.0000 C   0  0  0  0  0  0  0  0  0  0  0  0
   10.4167   -1.7250    0.0000 N   0  0  0  0  0  0  0  0  0  0  0  0
   -0.2333   -2.0667    0.0000 C   0  0  0  0  0  0  0  0  0  0  0  0
    1.1292   -4.5667    0.0000 C   0  0  0  0  0  0  0  0  0  0  0  0
    1.1917   -2.1167    0.0000 C   0  0  0  0  0  0  0  0  0  0  0  0
    1.8792   -3.3542    0.0000 C   0  0  0  0  0  0  0  0  0  0  0  0
   -0.2833   -4.5417    0.0000 C   0  0  0  0  0  0  0  0  0  0  0  0
    0.4042   -5.7917    0.0000 C   0  0  0  0  0  0  0  0  0  0  0  0
    2.6167   -2.1417    0.0000 C   0  0  0  0  0  0  0  0  0  0  0  0
   -0.2958   -5.3667    0.0000 C   0  0  0  0  0  0  0  0  0  0  0  0
    1.1292   -5.3917    0.0000 C   0  0  0  0  0  0  0  0  0  0  0  0
    2.6042   -2.9542    0.0000 C   0  0  0  0  0  0  0  0  0  0  0  0
    1.9167   -1.7167    0.0000 C   0  0  0  0  0  0  0  0  0  0  0  0
    0.3917   -6.6167    0.0000 I   0  0  0  0  0  0  0  0  0  0  0  0
   -0.9708   -3.2917    0.0000 C   0  0  0  0  0  0  0  0  0  0  0  0
    3.3292   -1.7417    0.0000 O   0  0  0  0  0  0  0  0  0  0  0  0
    9.7042   -2.1417    0.0000 C   0  0  0  0  0  0  0  0  0  0  0  0
   11.1667   -2.0542    0.0000 C   0  0  0  0  0  0  0  0  0  0  0  0
   10.4917   -0.9042    0.0000 C   0  0  0  0  0  0  0  0  0  0  0  0
    0.4917   -1.6667    0.0000 C   0  0  0  0  0  0  0  0  0  0  0  0
   -0.9333   -1.6292    0.0000 C   0  0  0  0  0  0  0  0  0  0  0  0
    4.0292   -2.1542    0.0000 C   0  0  0  0  0  0  0  0  0  0  0  0
    8.9917   -1.7417    0.0000 C   0  0  0  0  0  0  0  0  0  0  0  0
   -0.9833   -4.1042    0.0000 C   0  0  0  0  0  0  0  0  0  0  0  0
    4.7542   -1.7542    0.0000 C   0  0  0  0  0  0  0  0  0  0  0  0
    8.2917   -2.1542    0.0000 C   0  0  0  0  0  0  0  0  0  0  0  0
    5.4542   -2.1667    0.0000 C   0  0  0  0  0  0  0  0  0  0  0  0
    6.1667   -1.7542    0.0000 C   0  0  0  0  0  0  0  0  0  0  0  0
    6.8667   -2.1667    0.0000 C   0  0  0  0  0  0  0  0  0  0  0  0
    7.5792   -1.7542    0.0000 C   0  0  0  0  0  0  0  0  0  0  0  0
   11.3000   -0.7250    0.0000 C   0  0  0  0  0  0  0  0  0  0  0  0
   11.7167   -1.4375    0.0000 C   0  0  0  0  0  0  0  0  0  0  0  0
   -0.9208   -0.8167    0.0000 C   0  0  0  0  0  0  0  0  0  0  0  0
    0.5042   -0.8417    0.0000 C   0  0  0  0  0  0  0  0  0  0  0  0
   -0.1958   -0.4167    0.0000 C   0  0  0  0  0  0  0  0  0  0  0  0
  2  1  2  0
  3  1  1  0
  4  1  1  0
  5 20  1  0
  6  2  1  0
  7  3  1  0
  8  4  1  0
  9  4  2  0
 10  3  2  0
 11 13  2  0
 12 15  2  0
 13 10  1  0
 14  7  2  0
 15  9  1  0
 16  8  2  0
 17 11  1  0
 18  2  1  0
 19 12  1  0
 20 26  1  0
 21  5  1  0
 22  5  1  0
 23  6  1  0
 24  6  2  0
 25 19  1  0
 26 29  1  0
 27 18  1  0
 28 25  1  0
 29 33  1  0
 30 28  1  0
 31 30  1  0
 32 31  1  0
 33 32  1  0
 34 22  1  0
 35 21  1  0
 36 24  1  0
 37 23  2  0
 38 36  2  0
 12 16  1  0
 14 11  1  0
 38 37  1  0
 35 34  1  0
M  END

> <chembl_id>
CHEMBL6744

> <chembl_pref_name>
None

$$$$

     RDKit          2D

 31 35  0  0  1  0  0  0  0  0999 V2000
    5.8125   -3.7042    0.0000 C   0  0  0  0  0  0  0  0  0  0  0  0
    5.8125   -2.8875    0.0000 C   0  0  0  0  0  0  0  0  0  0  0  0
    3.5750   -4.1125    0.0000 C   0  0  0  0  0  0  0  0  0  0  0  0
    6.5917   -1.5792    0.0000 C   0  0  0  0  0  0  0  0  0  0  0  0
    5.0792   -4.1125    0.0000 C   0  0  0  0  0  0  0  0  0  0  0  0
    6.5917   -2.4667    0.0000 C   0  0  0  0  0  0  0  0  0  0  0  0
    7.3000   -3.7042    0.0000 C   0  0  0  0  0  0  0  0  0  0  0  0
    4.3125   -3.7042    0.0000 C   0  0  0  0  0  0  0  0  0  0  0  0
    7.3000   -2.8875    0.0000 C   0  0  0  0  0  0  0  0  0  0  0  0
    5.8500   -1.1250    0.0000 C   0  0  0  0  0  0  0  0  0  0  0  0
    3.5750   -5.0000    0.0000 C   0  0  0  0  0  0  0  0  0  0  0  0
    5.0792   -2.4667    0.0000 C   0  0  0  0  0  0  0  0  0  0  0  0
    6.0792   -0.2542    0.0000 C   0  0  0  0  0  0  0  0  0  0  0  0
    4.3125   -2.8875    0.0000 C   0  0  0  0  0  0  0  0  0  0  0  0
    7.0292   -0.2542    0.0000 O   0  0  0  0  0  0  0  0  0  0  0  0
    2.8542   -3.7042    0.0000 C   0  0  0  0  0  0  0  0  0  0  0  0
    5.0792   -5.0000    0.0000 C   0  0  0  0  0  0  0  0  0  0  0  0
    7.2917   -1.0292    0.0000 C   0  0  0  0  0  0  0  0  0  0  0  0
    4.3125   -5.4000    0.0000 C   0  0  0  0  0  0  0  0  0  0  0  0
    8.7167   -2.8917    0.0000 C   0  0  0  0  0  0  0  0  0  0  0  0
    5.8125   -4.7167    0.0000 O   0  0  0  0  0  0  0  0  0  0  0  0
    2.8542   -5.4000    0.0000 C   0  0  0  0  0  0  0  0  0  0  0  0
    5.5417    0.3750    0.0000 O   0  0  0  0  0  0  0  0  0  0  0  0
    8.7167   -3.7167    0.0000 O   0  0  0  0  0  0  0  0  0  0  0  0
    8.0125   -2.4792    0.0000 O   0  0  0  0  0  0  0  0  0  0  0  0
    5.8125   -1.9500    0.0000 C   0  0  0  0  0  0  0  0  0  0  0  0
    2.0792   -4.1125    0.0000 C   0  0  0  0  0  0  0  0  0  0  0  0
    2.0792   -5.0000    0.0000 C   0  0  0  0  0  0  0  0  0  0  0  0
    3.5750   -3.2542    0.0000 C   0  0  0  0  0  0  0  0  0  0  0  0
    1.4750   -5.4167    0.0000 O   0  0  0  0  0  0  0  0  0  0  0  0
    7.2000   -2.1167    0.0000 H   0  0  0  0  0  0  0  0  0  0  0  0
  2  1  1  0
  3  8  1  0
  4  6  1  0
  5  1  1  0
  6  2  1  0
  7  1  1  0
  8  5  1  0
  9  7  1  0
 10  4  2  0
 11 19  1  0
 12  2  1  0
 13 10  1  0
 14  8  1  0
 15 18  1  0
 16  3  1  0
 17  5  1  0
 18  4  1  0
 19 17  1  0
 20 25  1  0
 21  1  1  0
 22 11  1  0
 23 13  2  0
 24 20  2  0
 25  9  1  0
 26  2  1  0
 27 16  1  0
 28 22  1  0
 29  3  1  0
 30 28  1  0
  6 31  1  6
  9  6  1  0
 14 12  1  0
 11  3  1  0
 15 13  1  0
 28 27  1  0
M  END

> <chembl_id>
CHEMBL268340

> <chembl_pref_name>
None

$$$$

     RDKit          2D

 24 26  0  0  0  0  0  0  0  0999 V2000
   -0.5359   -0.1031    0.0000 C   0  0  0  0  0  0  0  0  0  0  0  0
   -0.5359   -0.9281    0.0000 N   0  0  0  0  0  0  0  0  0  0  0  0
    0.8931   -0.9281    0.0000 C   0  0  0  0  0  0  0  0  0  0  0  0
    0.1786   -1.3406    0.0000 C   0  0  0  0  0  0  0  0  0  0  0  0
    0.1786    0.3094    0.0000 N   0  0  0  0  0  0  0  0  0  0  0  0
    0.8931   -0.1031    0.0000 C   0  0  0  0  0  0  0  0  0  0  0  0
   -1.2503    0.3094    0.0000 N   0  0  0  0  0  0  0  0  0  0  0  0
    1.6076   -1.3406    0.0000 C   0  0  0  0  0  0  0  0  0  0  0  0
    1.6076    0.3094    0.0000 C   0  0  0  0  0  0  0  0  0  0  0  0
   -3.3937    1.5469    0.0000 C   0  0  0  0  0  0  0  0  0  0  0  0
    2.3220   -0.9281    0.0000 C   0  0  0  0  0  0  0  0  0  0  0  0
    2.3220   -0.1031    0.0000 C   0  0  0  0  0  0  0  0  0  0  0  0
   -1.9648   -0.1031    0.0000 C   0  0  0  0  0  0  0  0  0  0  0  0
   -1.2503    1.1344    0.0000 C   0  0  0  0  0  0  0  0  0  0  0  0
   -2.6793    1.1344    0.0000 C   0  0  0  0  0  0  0  0  0  0  0  0
   -4.1082    1.1344    0.0000 O   0  0  0  0  0  0  0  0  0  0  0  0
    0.1786   -2.1656    0.0000 N   0  0  0  0  0  0  0  0  0  0  0  0
   -1.9648    1.5469    0.0000 C   0  0  0  0  0  0  0  0  0  0  0  0
   -2.6793    0.3094    0.0000 C   0  0  0  0  0  0  0  0  0  0  0  0
   -3.3937    2.3719    0.0000 N   0  0  0  0  0  0  0  0  0  0  0  0
    3.0365   -1.3406    0.0000 O   0  0  0  0  0  0  0  0  0  0  0  0
    3.0365    0.3094    0.0000 O   0  0  0  0  0  0  0  0  0  0  0  0
    3.7510   -0.1031    0.0000 C   0  0  0  0  0  0  0  0  0  0  0  0
    3.7510   -0.9281    0.0000 C   0  0  0  0  0  0  0  0  0  0  0  0
  1  2  1  0
  2  4  2  0
  3  4  1  0
  1  5  2  0
  3  6  1  0
  5  6  1  0
  1  7  1  0
  3  8  2  0
  6  9  2  0
  8 11  1  0
  9 12  1  0
 11 12  2  0
  7 13  1  0
  7 14  1  0
 10 15  1  0
 10 16  2  0
  4 17  1  0
 14 18  1  0
 15 18  1  0
 13 19  1  0
 15 19  1  0
 10 20  1  0
 11 21  1  0
 12 22  1  0
 22 23  1  0
 21 24  1  0
M  END

> <chembl_id>
CHEMBL266927

> <chembl_pref_name>
None

$$$$

     RDKit          2D

 33 35  0  0  0  0  0  0  0  0999 V2000
    3.3000   -3.7250    0.0000 C   0  0  0  0  0  0  0  0  0  0  0  0
    2.6125   -3.2875    0.0000 C   0  0  0  0  0  0  0  0  0  0  0  0
    4.0250   -3.3417    0.0000 C   0  0  0  0  0  0  0  0  0  0  0  0
    3.2667   -4.5500    0.0000 C   0  0  0  0  0  0  0  0  0  0  0  0
    2.6375   -2.4542    0.0000 C   0  0  0  0  0  0  0  0  0  0  0  0
    4.0542   -2.5292    0.0000 C   0  0  0  0  0  0  0  0  0  0  0  0
    4.7250   -3.7792    0.0000 C   0  0  0  0  0  0  0  0  0  0  0  0
    2.5375   -4.9292    0.0000 C   0  0  0  0  0  0  0  0  0  0  0  0
    3.9625   -4.9875    0.0000 C   0  0  0  0  0  0  0  0  0  0  0  0
    3.2042   -6.1917    0.0000 C   0  0  0  0  0  0  0  0  0  0  0  0
   11.1542   -2.7125    0.0000 N   0  0  0  0  0  0  0  0  0  0  0  0
    5.4792   -2.5792    0.0000 C   0  0  0  0  0  0  0  0  0  0  0  0
    2.5042   -5.7500    0.0000 C   0  0  0  0  0  0  0  0  0  0  0  0
    3.9292   -5.8125    0.0000 C   0  0  0  0  0  0  0  0  0  0  0  0
    5.4542   -3.4000    0.0000 C   0  0  0  0  0  0  0  0  0  0  0  0
    4.7917   -2.1417    0.0000 C   0  0  0  0  0  0  0  0  0  0  0  0
    3.1792   -7.0250    0.0000 I   0  0  0  0  0  0  0  0  0  0  0  0
    1.8750   -3.6667    0.0000 C   0  0  0  0  0  0  0  0  0  0  0  0
    6.2042   -2.2000    0.0000 O   0  0  0  0  0  0  0  0  0  0  0  0
    1.9375   -2.0042    0.0000 C   0  0  0  0  0  0  0  0  0  0  0  0
    3.3667   -2.0792    0.0000 C   0  0  0  0  0  0  0  0  0  0  0  0
   10.4542   -2.2917    0.0000 C   0  0  0  0  0  0  0  0  0  0  0  0
   11.1500   -3.5375    0.0000 C   0  0  0  0  0  0  0  0  0  0  0  0
   11.8750   -2.3042    0.0000 C   0  0  0  0  0  0  0  0  0  0  0  0
    6.8917   -2.6292    0.0000 C   0  0  0  0  0  0  0  0  0  0  0  0
    1.8417   -4.4792    0.0000 C   0  0  0  0  0  0  0  0  0  0  0  0
    9.7375   -2.7000    0.0000 C   0  0  0  0  0  0  0  0  0  0  0  0
    7.6250   -2.2375    0.0000 C   0  0  0  0  0  0  0  0  0  0  0  0
    9.0417   -2.2750    0.0000 C   0  0  0  0  0  0  0  0  0  0  0  0
    8.3167   -2.6667    0.0000 C   0  0  0  0  0  0  0  0  0  0  0  0
    3.4042   -1.2542    0.0000 C   0  0  0  0  0  0  0  0  0  0  0  0
    1.9750   -1.1917    0.0000 C   0  0  0  0  0  0  0  0  0  0  0  0
    2.7042   -0.8125    0.0000 C   0  0  0  0  0  0  0  0  0  0  0  0
  2  1  2  0
  3  1  1  0
  4  1  1  0
  5  2  1  0
  6  3  1  0
  7  3  2  0
  8  4  2  0
  9  4  1  0
 10 14  1  0
 11 22  1  0
 12 15  2  0
 13  8  1  0
 14  9  2  0
 15  7  1  0
 16  6  2  0
 17 10  1  0
 18  2  1  0
 19 12  1  0
 20  5  2  0
 21  5  1  0
 22 27  1  0
 23 11  1  0
 24 11  1  0
 25 19  1  0
 26 18  1  0
 27 29  1  0
 28 25  1  0
 29 30  1  0
 30 28  1  0
 31 21  2  0
 32 20  1  0
 33 31  1  0
 10 13  2  0
 12 16  1  0
 33 32  2  0
M  END

> <chembl_id>
CHEMBL6617

> <chembl_pref_name>
None

$$$$

     RDKit          2D

 33 36  0  0  0  0  0  0  0  0999 V2000
    3.6292   -3.7417    0.0000 C   0  0  0  0  0  0  0  0  0  0  0  0
    2.9167   -3.3417    0.0000 C   0  0  0  0  0  0  0  0  0  0  0  0
    4.3375   -3.3167    0.0000 C   0  0  0  0  0  0  0  0  0  0  0  0
    3.6375   -4.5667    0.0000 C   0  0  0  0  0  0  0  0  0  0  0  0
   10.0042   -2.4000    0.0000 N   0  0  0  0  0  0  0  0  0  0  0  0
    2.9042   -2.5042    0.0000 C   0  0  0  0  0  0  0  0  0  0  0  0
    5.0542   -3.7292    0.0000 C   0  0  0  0  0  0  0  0  0  0  0  0
    2.9292   -4.9875    0.0000 C   0  0  0  0  0  0  0  0  0  0  0  0
    4.3500   -4.9667    0.0000 C   0  0  0  0  0  0  0  0  0  0  0  0
    4.3292   -2.5125    0.0000 C   0  0  0  0  0  0  0  0  0  0  0  0
    3.6542   -6.2042    0.0000 C   0  0  0  0  0  0  0  0  0  0  0  0
    5.7500   -2.4917    0.0000 C   0  0  0  0  0  0  0  0  0  0  0  0
    2.9375   -5.8042    0.0000 C   0  0  0  0  0  0  0  0  0  0  0  0
    4.3625   -5.7917    0.0000 C   0  0  0  0  0  0  0  0  0  0  0  0
    5.7667   -3.3125    0.0000 C   0  0  0  0  0  0  0  0  0  0  0  0
    5.0417   -2.0917    0.0000 C   0  0  0  0  0  0  0  0  0  0  0  0
    3.6667   -7.0417    0.0000 I   0  0  0  0  0  0  0  0  0  0  0  0
    2.2042   -3.7542    0.0000 C   0  0  0  0  0  0  0  0  0  0  0  0
    6.4542   -2.0750    0.0000 O   0  0  0  0  0  0  0  0  0  0  0  0
    9.2917   -2.0125    0.0000 C   0  0  0  0  0  0  0  0  0  0  0  0
   10.2042   -3.1917    0.0000 C   0  0  0  0  0  0  0  0  0  0  0  0
   10.7042   -1.9667    0.0000 C   0  0  0  0  0  0  0  0  0  0  0  0
    3.6167   -2.0917    0.0000 C   0  0  0  0  0  0  0  0  0  0  0  0
    2.1875   -2.0917    0.0000 C   0  0  0  0  0  0  0  0  0  0  0  0
    7.1667   -2.4667    0.0000 C   0  0  0  0  0  0  0  0  0  0  0  0
    8.5917   -2.4375    0.0000 C   0  0  0  0  0  0  0  0  0  0  0  0
    2.2125   -4.5667    0.0000 C   0  0  0  0  0  0  0  0  0  0  0  0
    7.8750   -2.0417    0.0000 C   0  0  0  0  0  0  0  0  0  0  0  0
   11.3292   -2.4917    0.0000 C   0  0  0  0  0  0  0  0  0  0  0  0
   11.0292   -3.2542    0.0000 C   0  0  0  0  0  0  0  0  0  0  0  0
    3.6125   -1.2667    0.0000 C   0  0  0  0  0  0  0  0  0  0  0  0
    2.1792   -1.2792    0.0000 C   0  0  0  0  0  0  0  0  0  0  0  0
    2.8917   -0.8542    0.0000 C   0  0  0  0  0  0  0  0  0  0  0  0
  2  1  2  0
  3  1  1  0
  4  1  1  0
  5 20  1  0
  6  2  1  0
  7  3  2  0
  8  4  2  0
  9  4  1  0
 10  3  1  0
 11 14  1  0
 12 16  1  0
 13  8  1  0
 14  9  2  0
 15  7  1  0
 16 10  2  0
 17 11  1  0
 18  2  1  0
 19 12  1  0
 20 26  1  0
 21  5  1  0
 22  5  1  0
 23  6  1  0
 24  6  2  0
 25 19  1  0
 26 28  1  0
 27 18  1  0
 28 25  1  0
 29 22  1  0
 30 21  1  0
 31 23  2  0
 32 24  1  0
 33 32  2  0
 11 13  2  0
 12 15  2  0
 33 31  1  0
 29 30  1  0
M  END

> <chembl_id>
CHEMBL267035

> <chembl_pref_name>
None

$$$$

     RDKit          2D

 24 25  0  0  1  0  0  0  0  0999 V2000
    7.2917   -1.8167    0.0000 S   0  0  0  0  0  0  0  0  0  0  0  0
    5.2292   -3.4167    0.0000 C   0  0  0  0  0  0  0  0  0  0  0  0
    6.6792   -2.3667    0.0000 N   0  0  0  0  0  0  0  0  0  0  0  0
    4.5167   -3.8417    0.0000 C   0  0  0  0  0  0  0  0  0  0  0  0
    5.9417   -4.6667    0.0000 C   0  0  0  0  0  0  0  0  0  0  0  0
    5.9417   -3.8417    0.0000 C   0  0  0  0  0  0  0  0  0  0  0  0
    5.8917   -2.1167    0.0000 C   0  0  0  0  0  0  0  0  0  0  0  0
    5.2292   -5.0792    0.0000 O   0  0  0  0  0  0  0  0  0  0  0  0
    4.5167   -4.6542    0.0000 C   0  0  0  0  0  0  0  0  0  0  0  0
    5.2292   -2.5917    0.0000 N   0  0  0  0  0  0  0  0  0  0  0  0
    1.6542   -3.0167    0.0000 N   0  0  0  0  0  0  0  0  0  0  0  0
    2.3667   -3.4292    0.0000 C   0  0  0  0  0  0  0  0  0  0  0  0
    8.0042   -2.2292    0.0000 O   0  0  0  0  0  0  0  0  0  0  0  0
    6.5792   -1.4042    0.0000 O   0  0  0  0  0  0  0  0  0  0  0  0
    3.8042   -3.4292    0.0000 C   0  0  0  0  0  0  0  0  0  0  0  0
    7.7417   -1.1292    0.0000 N   0  0  0  0  0  0  0  0  0  0  0  0
    3.8042   -5.0792    0.0000 C   0  0  0  0  0  0  0  0  0  0  0  0
    5.6417   -1.3292    0.0000 N   0  0  0  0  0  0  0  0  0  0  0  0
    3.0917   -3.8417    0.0000 C   0  0  0  0  0  0  0  0  0  0  0  0
    6.6667   -3.4292    0.0000 O   0  0  0  0  0  0  0  0  0  0  0  0
    3.0917   -4.6667    0.0000 C   0  0  0  0  0  0  0  0  0  0  0  0
    5.7292   -5.4667    0.0000 C   0  0  0  0  0  0  0  0  0  0  0  0
    6.6542   -5.0792    0.0000 C   0  0  0  0  0  0  0  0  0  0  0  0
    4.8292   -1.1542    0.0000 C   0  0  0  0  0  0  0  0  0  0  0  0
  2 10  1  0
  3  1  1  0
  4  2  1  0
  5  6  1  0
  6  2  1  0
  7  3  1  0
  8  5  1  0
  9  4  1  0
 10  7  1  0
 11 12  3  0
 12 19  1  0
 13  1  2  0
 14  1  2  0
 15  4  2  0
 16  1  1  0
 17  9  2  0
 18  7  2  0
 19 15  1  0
  6 20  1  6
 21 19  2  0
 22  5  1  0
 23  5  1  0
 24 18  1  0
  9  8  1  0
 17 21  1  0
M  END

> <chembl_id>
CHEMBL6425

> <chembl_pref_name>
None

$$$$

     RDKit          2D

 36 38  0  0  1  0  0  0  0  0999 V2000
    1.8917   -3.5250    0.0000 C   0  0  0  0  0  0  0  0  0  0  0  0
    1.1875   -3.1125    0.0000 C   0  0  0  0  0  0  0  0  0  0  0  0
    1.8917   -4.3500    0.0000 C   0  0  0  0  0  0  0  0  0  0  0  0
    0.4750   -3.5167    0.0000 N   0  0  0  0  0  0  0  0  0  0  0  0
    1.1792   -4.7542    0.0000 N   0  0  0  0  0  0  0  0  0  0  0  0
    7.6000   -1.8500    0.0000 C   0  0  0  0  0  0  0  0  0  0  0  0
    6.8875   -2.2667    0.0000 C   0  0  0  0  0  0  0  0  0  0  0  0
    8.3125   -2.2625    0.0000 N   0  0  0  0  0  0  0  0  0  0  0  0
    0.4667   -4.3375    0.0000 C   0  0  0  0  0  0  0  0  0  0  0  0
    2.6042   -3.1042    0.0000 C   0  0  0  0  0  0  0  0  0  0  0  0
    6.1667   -1.8625    0.0000 C   0  0  0  0  0  0  0  0  0  0  0  0
    9.0250   -1.8500    0.0000 C   0  0  0  0  0  0  0  0  0  0  0  0
    3.3167   -3.5167    0.0000 C   0  0  0  0  0  0  0  0  0  0  0  0
    5.4542   -2.2750    0.0000 C   0  0  0  0  0  0  0  0  0  0  0  0
    9.7417   -2.2500    0.0000 C   0  0  0  0  0  0  0  0  0  0  0  0
    5.4625   -3.1000    0.0000 C   0  0  0  0  0  0  0  0  0  0  0  0
    4.7417   -3.5125    0.0000 N   0  0  0  0  0  0  0  0  0  0  0  0
    2.6042   -4.7625    0.0000 C   0  0  0  0  0  0  0  0  0  0  0  0
    4.0292   -3.1000    0.0000 C   0  0  0  0  0  0  0  0  0  0  0  0
    6.8875   -3.0917    0.0000 C   0  0  0  0  0  0  0  0  0  0  0  0
    3.3167   -4.3500    0.0000 C   0  0  0  0  0  0  0  0  0  0  0  0
    5.4417   -4.7750    0.0000 C   0  0  0  0  0  0  0  0  0  0  0  0
    6.1417   -5.2250    0.0000 C   0  0  0  0  0  0  0  0  0  0  0  0
    9.0167   -1.0250    0.0000 C   0  0  0  0  0  0  0  0  0  0  0  0
    1.1917   -2.2875    0.0000 O   0  0  0  0  0  0  0  0  0  0  0  0
    7.5917   -1.0250    0.0000 O   0  0  0  0  0  0  0  0  0  0  0  0
    6.1750   -3.5125    0.0000 C   0  0  0  0  0  0  0  0  0  0  0  0
   10.4542   -1.8375    0.0000 O   0  0  0  0  0  0  0  0  0  0  0  0
    6.1542   -1.0375    0.0000 F   0  0  0  0  0  0  0  0  0  0  0  0
    4.7417   -4.3375    0.0000 C   0  0  0  0  0  0  0  0  0  0  0  0
    9.7500   -3.0750    0.0000 O   0  0  0  0  0  0  0  0  0  0  0  0
   -0.2458   -4.7500    0.0000 C   0  0  0  0  0  0  0  0  0  0  0  0
    4.0375   -4.7625    0.0000 C   0  0  0  0  0  0  0  0  0  0  0  0
    8.3042   -0.6167    0.0000 C   0  0  0  0  0  0  0  0  0  0  0  0
    9.8167   -1.2292    0.0000 C   0  0  0  0  0  0  0  0  0  0  0  0
    9.7292   -0.6042    0.0000 C   0  0  0  0  0  0  0  0  0  0  0  0
  2  1  1  0
  3  1  2  0
  4  2  2  0
  5  3  1  0
  6  7  1  0
  7 20  2  0
  8  6  1  0
  9  5  2  0
 10  1  1  0
 11 14  2  0
 12  8  1  0
 13 10  2  0
 14 16  1  0
 15 12  1  0
 16 17  1  0
 17 19  1  0
 18  3  1  0
 19 13  1  0
 20 27  1  0
 21 13  1  0
 22 30  1  0
 23 22  3  0
 12 24  1  6
 25  2  1  0
 26  6  2  0
 27 16  2  0
 28 15  2  0
 29 11  1  0
 30 17  1  0
 31 15  1  0
 32  9  1  0
 33 21  1  0
 34 24  1  0
 35 24  1  0
 36 24  1  0
 18 21  2  0
  4  9  1  0
  7 11  1  0
M  END

> <chembl_id>
CHEMBL6436

> <chembl_pref_name>
None

$$$$

     RDKit          2D

 37 40  0  0  0  0  0  0  0  0999 V2000
   -0.5083   -2.7917    0.0000 C   0  0  0  0  0  0  0  0  0  0  0  0
   -1.2083   -2.3875    0.0000 C   0  0  0  0  0  0  0  0  0  0  0  0
   -0.4958   -3.6167    0.0000 C   0  0  0  0  0  0  0  0  0  0  0  0
    0.2042   -2.3750    0.0000 C   0  0  0  0  0  0  0  0  0  0  0  0
    8.7250   -1.3542    0.0000 N   0  0  0  0  0  0  0  0  0  0  0  0
   -1.2208   -1.5542    0.0000 C   0  0  0  0  0  0  0  0  0  0  0  0
    0.2167   -4.0167    0.0000 C   0  0  0  0  0  0  0  0  0  0  0  0
    0.2042   -1.5625    0.0000 C   0  0  0  0  0  0  0  0  0  0  0  0
    0.9292   -2.7792    0.0000 C   0  0  0  0  0  0  0  0  0  0  0  0
   -1.2083   -4.0292    0.0000 C   0  0  0  0  0  0  0  0  0  0  0  0
   -0.4833   -5.2625    0.0000 C   0  0  0  0  0  0  0  0  0  0  0  0
    1.6167   -1.5500    0.0000 C   0  0  0  0  0  0  0  0  0  0  0  0
   -1.1958   -4.8542    0.0000 C   0  0  0  0  0  0  0  0  0  0  0  0
    0.2292   -4.8417    0.0000 C   0  0  0  0  0  0  0  0  0  0  0  0
    1.6417   -2.3667    0.0000 C   0  0  0  0  0  0  0  0  0  0  0  0
    0.9167   -1.1417    0.0000 C   0  0  0  0  0  0  0  0  0  0  0  0
   -0.4708   -6.0917    0.0000 I   0  0  0  0  0  0  0  0  0  0  0  0
   -1.9208   -2.8042    0.0000 C   0  0  0  0  0  0  0  0  0  0  0  0
    2.3292   -1.1292    0.0000 O   0  0  0  0  0  0  0  0  0  0  0  0
    7.9917   -0.9750    0.0000 C   0  0  0  0  0  0  0  0  0  0  0  0
    8.8417   -2.1667    0.0000 C   0  0  0  0  0  0  0  0  0  0  0  0
    9.4542   -0.9792    0.0000 C   0  0  0  0  0  0  0  0  0  0  0  0
   -0.5083   -1.1417    0.0000 C   0  0  0  0  0  0  0  0  0  0  0  0
   -1.9458   -1.1375    0.0000 C   0  0  0  0  0  0  0  0  0  0  0  0
    3.0417   -1.5292    0.0000 C   0  0  0  0  0  0  0  0  0  0  0  0
    7.3042   -1.4167    0.0000 C   0  0  0  0  0  0  0  0  0  0  0  0
   -1.9208   -3.6167    0.0000 C   0  0  0  0  0  0  0  0  0  0  0  0
    3.7542   -1.1042    0.0000 C   0  0  0  0  0  0  0  0  0  0  0  0
    5.1667   -1.0750    0.0000 C   0  0  0  0  0  0  0  0  0  0  0  0
    5.8792   -1.4667    0.0000 C   0  0  0  0  0  0  0  0  0  0  0  0
    6.5792   -1.0292    0.0000 C   0  0  0  0  0  0  0  0  0  0  0  0
    4.4667   -1.5000    0.0000 C   0  0  0  0  0  0  0  0  0  0  0  0
   10.0375   -1.5667    0.0000 C   0  0  0  0  0  0  0  0  0  0  0  0
    9.6542   -2.3000    0.0000 C   0  0  0  0  0  0  0  0  0  0  0  0
   -0.5083   -0.3167    0.0000 C   0  0  0  0  0  0  0  0  0  0  0  0
   -1.9458   -0.3250    0.0000 C   0  0  0  0  0  0  0  0  0  0  0  0
   -1.2333    0.0958    0.0000 C   0  0  0  0  0  0  0  0  0  0  0  0
  2  1  2  0
  3  1  1  0
  4  1  1  0
  5 20  1  0
  6  2  1  0
  7  3  1  0
  8  4  1  0
  9  4  2  0
 10  3  2  0
 11 13  2  0
 12 15  2  0
 13 10  1  0
 14  7  2  0
 15  9  1  0
 16  8  2  0
 17 11  1  0
 18  2  1  0
 19 12  1  0
 20 26  1  0
 21  5  1  0
 22  5  1  0
 23  6  1  0
 24  6  2  0
 25 19  1  0
 26 31  1  0
 27 18  1  0
 28 25  1  0
 29 32  1  0
 30 29  1  0
 31 30  1  0
 32 28  1  0
 33 22  1  0
 34 21  1  0
 35 23  2  0
 36 24  1  0
 37 36  2  0
 12 16  1  0
 14 11  1  0
 37 35  1  0
 34 33  1  0
M  END

> <chembl_id>
CHEMBL6410

> <chembl_pref_name>
None

$$$$

     RDKit          2D

 24 26  0  0  0  0  0  0  0  0999 V2000
    4.3250   -4.0917    0.0000 S   0  0  0  0  0  0  0  0  0  0  0  0
    5.0250   -4.5042    0.0000 N   0  0  0  0  0  0  0  0  0  0  0  0
    4.3250   -3.2667    0.0000 C   0  0  0  0  0  0  0  0  0  0  0  0
    3.6042   -2.8500    0.0000 C   0  0  0  0  0  0  0  0  0  0  0  0
    3.6042   -2.0167    0.0000 C   0  0  0  0  0  0  0  0  0  0  0  0
    2.8792   -1.6042    0.0000 C   0  0  0  0  0  0  0  0  0  0  0  0
    5.7500   -4.0917    0.0000 C   0  0  0  0  0  0  0  0  0  0  0  0
    3.4917   -4.0917    0.0000 O   0  0  0  0  0  0  0  0  0  0  0  0
    4.3167   -4.9250    0.0000 O   0  0  0  0  0  0  0  0  0  0  0  0
    5.7417   -3.2542    0.0000 N   0  0  0  0  0  0  0  0  0  0  0  0
    2.8792   -0.7667    0.0000 N   0  0  0  0  0  0  0  0  0  0  0  0
    6.4625   -2.8292    0.0000 C   0  0  0  0  0  0  0  0  0  0  0  0
    7.1875   -3.2417    0.0000 C   0  0  0  0  0  0  0  0  0  0  0  0
    6.4792   -4.4917    0.0000 C   0  0  0  0  0  0  0  0  0  0  0  0
    7.8917   -2.8292    0.0000 Br  0  0  0  0  0  0  0  0  0  0  0  0
    5.0417   -2.8500    0.0000 C   0  0  0  0  0  0  0  0  0  0  0  0
    4.3167   -1.6042    0.0000 C   0  0  0  0  0  0  0  0  0  0  0  0
    2.8792   -3.2667    0.0000 C   0  0  0  0  0  0  0  0  0  0  0  0
    7.1875   -4.0792    0.0000 C   0  0  0  0  0  0  0  0  0  0  0  0
    2.1667   -2.0167    0.0000 C   0  0  0  0  0  0  0  0  0  0  0  0
    5.0417   -2.0167    0.0000 C   0  0  0  0  0  0  0  0  0  0  0  0
    2.1667   -2.8500    0.0000 C   0  0  0  0  0  0  0  0  0  0  0  0
    2.1625   -0.3542    0.0000 C   0  0  0  0  0  0  0  0  0  0  0  0
    3.6042   -0.3542    0.0000 C   0  0  0  0  0  0  0  0  0  0  0  0
  2  1  1  0
  3  1  1  0
  4  3  1  0
  5  4  2  0
  6  5  1  0
  7  2  1  0
  8  1  2  0
  9  1  2  0
 10  7  2  0
 11  6  1  0
 12 10  1  0
 13 19  1  0
 14  7  1  0
 15 13  1  0
 16  3  2  0
 17 21  2  0
 18  4  1  0
 19 14  2  0
 20 22  1  0
 21 16  1  0
 22 18  2  0
 23 11  1  0
 24 11  1  0
 17  5  1  0
 20  6  2  0
 13 12  2  0
M  END

> <chembl_id>
CHEMBL6411

> <chembl_pref_name>
None

$$$$

     RDKit          2D

 15 17  0  0  0  0  0  0  0  0999 V2000
    4.8917   -2.0292    0.0000 C   0  0  0  0  0  0  0  0  0  0  0  0
    3.4542   -2.0250    0.0000 C   0  0  0  0  0  0  0  0  0  0  0  0
    4.8917   -2.8542    0.0000 C   0  0  0  0  0  0  0  0  0  0  0  0
    4.1667   -3.2667    0.0000 N   0  0  0  0  0  0  0  0  0  0  0  0
    3.4542   -2.8500    0.0000 C   0  0  0  0  0  0  0  0  0  0  0  0
    5.7167   -2.0292    0.0000 O   0  0  0  0  0  0  0  0  0  0  0  0
    4.6417   -1.2417    0.0000 O   0  0  0  0  0  0  0  0  0  0  0  0
    2.7417   -1.6125    0.0000 C   0  0  0  0  0  0  0  0  0  0  0  0
    5.6042   -3.2667    0.0000 O   0  0  0  0  0  0  0  0  0  0  0  0
    2.7417   -3.2667    0.0000 C   0  0  0  0  0  0  0  0  0  0  0  0
    2.0292   -2.0250    0.0000 C   0  0  0  0  0  0  0  0  0  0  0  0
    2.0292   -2.8542    0.0000 C   0  0  0  0  0  0  0  0  0  0  0  0
    1.3125   -1.6125    0.0000 I   0  0  0  0  0  0  0  0  0  0  0  0
    5.3042   -0.7542    0.0000 C   0  0  0  0  0  0  0  0  0  0  0  0
    5.9750   -1.2417    0.0000 C   0  0  0  0  0  0  0  0  0  0  0  0
  2  1  1  0
  3  1  1  0
  4  3  1  0
  5  2  1  0
  6  1  1  0
  7  1  1  0
  8  2  2  0
  9  3  2  0
 10  5  2  0
 11  8  1  0
 12 11  2  0
 13 11  1  0
 14  7  1  0
 15  6  1  0
 14 15  1  0
  4  5  1  0
 12 10  1  0
M  END

> <chembl_id>
CHEMBL267833

> <chembl_pref_name>
None

$$$$

     RDKit          2D

 15 17  0  0  0  0  0  0  0  0999 V2000
    4.8917   -2.0292    0.0000 C   0  0  0  0  0  0  0  0  0  0  0  0
    3.4542   -2.0250    0.0000 C   0  0  0  0  0  0  0  0  0  0  0  0
    4.8917   -2.8542    0.0000 C   0  0  0  0  0  0  0  0  0  0  0  0
    4.1667   -3.2667    0.0000 N   0  0  0  0  0  0  0  0  0  0  0  0
    3.4542   -2.8500    0.0000 C   0  0  0  0  0  0  0  0  0  0  0  0
    2.7417   -1.6125    0.0000 C   0  0  0  0  0  0  0  0  0  0  0  0
    2.7417   -3.2667    0.0000 C   0  0  0  0  0  0  0  0  0  0  0  0
    5.7167   -2.0292    0.0000 O   0  0  0  0  0  0  0  0  0  0  0  0
    4.6417   -1.2417    0.0000 O   0  0  0  0  0  0  0  0  0  0  0  0
    5.6042   -3.2667    0.0000 O   0  0  0  0  0  0  0  0  0  0  0  0
    2.0292   -2.8542    0.0000 C   0  0  0  0  0  0  0  0  0  0  0  0
    2.0292   -2.0250    0.0000 C   0  0  0  0  0  0  0  0  0  0  0  0
    1.3125   -3.2625    0.0000 Cl  0  0  0  0  0  0  0  0  0  0  0  0
    5.3042   -0.7542    0.0000 C   0  0  0  0  0  0  0  0  0  0  0  0
    5.9750   -1.2417    0.0000 C   0  0  0  0  0  0  0  0  0  0  0  0
  2  1  1  0
  3  1  1  0
  4  3  1  0
  5  2  1  0
  6  2  2  0
  7  5  2  0
  8  1  1  0
  9  1  1  0
 10  3  2  0
 11 12  2  0
 12  6  1  0
 13 11  1  0
 14  9  1  0
 15  8  1  0
 14 15  1  0
  4  5  1  0
 11  7  1  0
M  END

> <chembl_id>
CHEMBL267834

> <chembl_pref_name>
None

$$$$

     RDKit          2D

 25 27  0  0  0  0  0  0  0  0999 V2000
    4.3250   -4.0917    0.0000 S   0  0  0  0  0  0  0  0  0  0  0  0
    5.0375   -4.5042    0.0000 N   0  0  0  0  0  0  0  0  0  0  0  0
    5.7500   -4.0792    0.0000 C   0  0  0  0  0  0  0  0  0  0  0  0
    4.3250   -3.2667    0.0000 C   0  0  0  0  0  0  0  0  0  0  0  0
    3.6042   -2.8542    0.0000 C   0  0  0  0  0  0  0  0  0  0  0  0
    3.6042   -2.0250    0.0000 C   0  0  0  0  0  0  0  0  0  0  0  0
    7.1875   -4.0792    0.0000 N   0  0  0  0  0  0  0  0  0  0  0  0
    5.7417   -3.2542    0.0000 N   0  0  0  0  0  0  0  0  0  0  0  0
    2.8792   -1.6042    0.0000 C   0  0  0  0  0  0  0  0  0  0  0  0
    6.4792   -4.5000    0.0000 C   0  0  0  0  0  0  0  0  0  0  0  0
    3.4917   -4.0792    0.0000 O   0  0  0  0  0  0  0  0  0  0  0  0
    4.3167   -4.9250    0.0000 O   0  0  0  0  0  0  0  0  0  0  0  0
    7.1875   -3.2375    0.0000 C   0  0  0  0  0  0  0  0  0  0  0  0
    2.8792   -0.7792    0.0000 N   0  0  0  0  0  0  0  0  0  0  0  0
    6.4625   -2.8375    0.0000 C   0  0  0  0  0  0  0  0  0  0  0  0
    7.8917   -2.8292    0.0000 Br  0  0  0  0  0  0  0  0  0  0  0  0
    5.0417   -2.8500    0.0000 C   0  0  0  0  0  0  0  0  0  0  0  0
    2.8792   -3.2667    0.0000 C   0  0  0  0  0  0  0  0  0  0  0  0
    4.3167   -1.6042    0.0000 C   0  0  0  0  0  0  0  0  0  0  0  0
    2.1667   -2.0250    0.0000 C   0  0  0  0  0  0  0  0  0  0  0  0
    5.0417   -2.0167    0.0000 C   0  0  0  0  0  0  0  0  0  0  0  0
    2.1667   -2.8542    0.0000 C   0  0  0  0  0  0  0  0  0  0  0  0
    6.4792   -5.3292    0.0000 C   0  0  0  0  0  0  0  0  0  0  0  0
    3.6042   -0.3542    0.0000 C   0  0  0  0  0  0  0  0  0  0  0  0
    2.1625   -0.3625    0.0000 C   0  0  0  0  0  0  0  0  0  0  0  0
  2  1  1  0
  3  2  1  0
  4  1  1  0
  5  4  1  0
  6  5  2  0
  7 10  2  0
  8  3  2  0
  9  6  1  0
 10  3  1  0
 11  1  2  0
 12  1  2  0
 13  7  1  0
 14  9  1  0
 15  8  1  0
 16 13  1  0
 17  4  2  0
 18  5  1  0
 19 21  2  0
 20 22  1  0
 21 17  1  0
 22 18  2  0
 23 10  1  0
 24 14  1  0
 25 14  1  0
 19  6  1  0
 13 15  2  0
 20  9  2  0
M  END

> <chembl_id>
CHEMBL6382

> <chembl_pref_name>
None

$$$$

     RDKit          2D

 23 25  0  0  0  0  0  0  0  0999 V2000
    4.5042   -4.0917    0.0000 S   0  0  0  0  0  0  0  0  0  0  0  0
    5.2125   -4.5042    0.0000 N   0  0  0  0  0  0  0  0  0  0  0  0
    4.5042   -3.2667    0.0000 C   0  0  0  0  0  0  0  0  0  0  0  0
    3.7750   -2.8625    0.0000 C   0  0  0  0  0  0  0  0  0  0  0  0
    3.7750   -2.0292    0.0000 C   0  0  0  0  0  0  0  0  0  0  0  0
    3.0625   -1.6167    0.0000 C   0  0  0  0  0  0  0  0  0  0  0  0
    5.9292   -4.0917    0.0000 C   0  0  0  0  0  0  0  0  0  0  0  0
    3.6750   -4.0917    0.0000 O   0  0  0  0  0  0  0  0  0  0  0  0
    4.5000   -4.9250    0.0000 O   0  0  0  0  0  0  0  0  0  0  0  0
    5.9250   -3.2667    0.0000 N   0  0  0  0  0  0  0  0  0  0  0  0
    3.0625   -0.7792    0.0000 N   0  0  0  0  0  0  0  0  0  0  0  0
    6.6417   -2.8417    0.0000 N   0  0  0  0  0  0  0  0  0  0  0  0
    5.2125   -2.8500    0.0000 C   0  0  0  0  0  0  0  0  0  0  0  0
    3.0625   -3.2750    0.0000 C   0  0  0  0  0  0  0  0  0  0  0  0
    4.5000   -1.6042    0.0000 C   0  0  0  0  0  0  0  0  0  0  0  0
    2.3500   -2.0292    0.0000 C   0  0  0  0  0  0  0  0  0  0  0  0
    6.6500   -4.5042    0.0000 C   0  0  0  0  0  0  0  0  0  0  0  0
    2.3500   -2.8625    0.0000 C   0  0  0  0  0  0  0  0  0  0  0  0
    5.2125   -2.0167    0.0000 C   0  0  0  0  0  0  0  0  0  0  0  0
    7.3542   -3.2417    0.0000 C   0  0  0  0  0  0  0  0  0  0  0  0
    2.3417   -0.3667    0.0000 C   0  0  0  0  0  0  0  0  0  0  0  0
    3.7750   -0.3542    0.0000 C   0  0  0  0  0  0  0  0  0  0  0  0
    7.3542   -4.0792    0.0000 C   0  0  0  0  0  0  0  0  0  0  0  0
  2  1  1  0
  3  1  1  0
  4  3  1  0
  5  4  2  0
  6  5  1  0
  7  2  1  0
  8  1  2  0
  9  1  2  0
 10  7  2  0
 11  6  1  0
 12 10  1  0
 13  3  2  0
 14  4  1  0
 15 19  2  0
 16 18  1  0
 17  7  1  0
 18 14  2  0
 19 13  1  0
 20 23  1  0
 21 11  1  0
 22 11  1  0
 23 17  2  0
 15  5  1  0
 16  6  2  0
 20 12  2  0
M  END

> <chembl_id>
CHEMBL414200

> <chembl_pref_name>
None

$$$$

     RDKit          2D

 10 10  0  0  0  0  0  0  0  0999 V2000
   23.1456   -9.3086    0.0000 C   0  0  0  0  0  0  0  0  0  0  0  0
   21.8820   -8.6463    0.0000 C   0  0  0  0  0  0  0  0  0  0  0  0
   21.0552   -8.6763    0.0000 C   0  0  0  0  0  0  0  0  0  0  0  0
   20.6695   -9.4063    0.0000 C   0  0  0  0  0  0  0  0  0  0  0  0
   21.1095  -10.1066    0.0000 C   0  0  0  0  0  0  0  0  0  0  0  0
   21.9394  -10.0725    0.0000 C   0  0  0  0  0  0  0  0  0  0  0  0
   22.3213   -9.3422    0.0000 C   0  0  0  0  0  0  0  0  0  0  0  0
   23.5869  -10.0059    0.0000 C   0  0  0  0  0  0  0  0  0  0  0  0
   24.4113   -9.9724    0.0000 N   0  0  0  0  0  0  0  0  0  0  0  0
   23.2037  -10.7365    0.0000 C   0  0  0  0  0  0  0  0  0  0  0  0
  2  3  2  0
  3  4  1  0
  4  5  2  0
  5  6  1  0
  6  7  2  0
  7  2  1  0
  7  1  1  0
  1  8  1  0
  8  9  1  0
  8 10  1  0
M  END

> <chembl_id>
CHEMBL405

> <chembl_pref_name>
AMPHETAMINE

$$$$

     RDKit          2D

 35 38  0  0  0  0  0  0  0  0999 V2000
   -0.9583   -1.3292    0.0000 C   0  0  0  0  0  0  0  0  0  0  0  0
   -1.6375   -0.8875    0.0000 C   0  0  0  0  0  0  0  0  0  0  0  0
   -1.0000   -2.1542    0.0000 C   0  0  0  0  0  0  0  0  0  0  0  0
   -0.2250   -0.9500    0.0000 C   0  0  0  0  0  0  0  0  0  0  0  0
    6.9125   -0.3917    0.0000 N   0  0  0  0  0  0  0  0  0  0  0  0
   -1.6083   -0.0542    0.0000 C   0  0  0  0  0  0  0  0  0  0  0  0
   -0.3083   -2.5917    0.0000 C   0  0  0  0  0  0  0  0  0  0  0  0
   -0.1875   -0.1417    0.0000 C   0  0  0  0  0  0  0  0  0  0  0  0
    0.4667   -1.3917    0.0000 C   0  0  0  0  0  0  0  0  0  0  0  0
   -1.7250   -2.5292    0.0000 C   0  0  0  0  0  0  0  0  0  0  0  0
   -1.0750   -3.7917    0.0000 C   0  0  0  0  0  0  0  0  0  0  0  0
    1.2375   -0.2042    0.0000 C   0  0  0  0  0  0  0  0  0  0  0  0
   -1.7625   -3.3500    0.0000 C   0  0  0  0  0  0  0  0  0  0  0  0
   -0.3375   -3.4167    0.0000 C   0  0  0  0  0  0  0  0  0  0  0  0
    1.2042   -1.0167    0.0000 C   0  0  0  0  0  0  0  0  0  0  0  0
    0.5500    0.2375    0.0000 C   0  0  0  0  0  0  0  0  0  0  0  0
   -1.1125   -4.6292    0.0000 I   0  0  0  0  0  0  0  0  0  0  0  0
   -2.3750   -1.2625    0.0000 C   0  0  0  0  0  0  0  0  0  0  0  0
    1.9625    0.1708    0.0000 O   0  0  0  0  0  0  0  0  0  0  0  0
    6.2125    0.0375    0.0000 C   0  0  0  0  0  0  0  0  0  0  0  0
    6.9750   -1.2125    0.0000 C   0  0  0  0  0  0  0  0  0  0  0  0
    7.6750   -0.0750    0.0000 C   0  0  0  0  0  0  0  0  0  0  0  0
   -0.8750    0.3208    0.0000 C   0  0  0  0  0  0  0  0  0  0  0  0
   -2.3000    0.4000    0.0000 C   0  0  0  0  0  0  0  0  0  0  0  0
    2.6500   -0.2625    0.0000 C   0  0  0  0  0  0  0  0  0  0  0  0
    5.4875   -0.3542    0.0000 C   0  0  0  0  0  0  0  0  0  0  0  0
   -2.4208   -2.0750    0.0000 C   0  0  0  0  0  0  0  0  0  0  0  0
    3.3792    0.1208    0.0000 C   0  0  0  0  0  0  0  0  0  0  0  0
    4.8000    0.0708    0.0000 C   0  0  0  0  0  0  0  0  0  0  0  0
    4.0750   -0.3125    0.0000 C   0  0  0  0  0  0  0  0  0  0  0  0
    8.2042   -0.7042    0.0000 C   0  0  0  0  0  0  0  0  0  0  0  0
    7.7750   -1.4042    0.0000 C   0  0  0  0  0  0  0  0  0  0  0  0
   -0.8333    1.1458    0.0000 C   0  0  0  0  0  0  0  0  0  0  0  0
   -2.2625    1.2125    0.0000 C   0  0  0  0  0  0  0  0  0  0  0  0
   -1.5250    1.5958    0.0000 C   0  0  0  0  0  0  0  0  0  0  0  0
  2  1  2  0
  3  1  1  0
  4  1  1  0
  5 20  1  0
  6  2  1  0
  7  3  1  0
  8  4  1  0
  9  4  2  0
 10  3  2  0
 11 13  2  0
 12 15  2  0
 13 10  1  0
 14  7  2  0
 15  9  1  0
 16  8  2  0
 17 11  1  0
 18  2  1  0
 19 12  1  0
 20 26  1  0
 21  5  1  0
 22  5  1  0
 23  6  1  0
 24  6  2  0
 25 19  1  0
 26 29  1  0
 27 18  1  0
 28 25  1  0
 29 30  1  0
 30 28  1  0
 31 22  1  0
 32 21  1  0
 33 23  2  0
 34 24  1  0
 35 34  2  0
 12 16  1  0
 14 11  1  0
 35 33  1  0
 32 31  1  0
M  END

> <chembl_id>
CHEMBL269303

> <chembl_pref_name>
None

$$$$

     RDKit          2D

 28 32  0  0  0  0  0  0  0  0999 V2000
    7.0042   -3.6125    0.0000 N   0  0  0  0  0  0  0  0  0  0  0  0
    6.2875   -4.0250    0.0000 C   0  0  0  0  0  0  0  0  0  0  0  0
    5.5667   -3.6042    0.0000 C   0  0  0  0  0  0  0  0  0  0  0  0
    5.5750   -2.7792    0.0000 C   0  0  0  0  0  0  0  0  0  0  0  0
    6.2875   -2.3667    0.0000 C   0  0  0  0  0  0  0  0  0  0  0  0
    7.0042   -2.7792    0.0000 C   0  0  0  0  0  0  0  0  0  0  0  0
    6.9917   -5.2625    0.0000 N   0  0  0  0  0  0  0  0  0  0  0  0
    6.2792   -4.8417    0.0000 C   0  0  0  0  0  0  0  0  0  0  0  0
    7.7167   -4.0250    0.0000 C   0  0  0  0  0  0  0  0  0  0  0  0
    6.2875   -1.5417    0.0000 C   0  0  0  0  0  0  0  0  0  0  0  0
    7.7125   -4.8542    0.0000 C   0  0  0  0  0  0  0  0  0  0  0  0
    6.9917   -6.0875    0.0000 C   0  0  0  0  0  0  0  0  0  0  0  0
    6.2750   -6.5000    0.0000 C   0  0  0  0  0  0  0  0  0  0  0  0
    4.8542   -4.0250    0.0000 C   0  0  0  0  0  0  0  0  0  0  0  0
    4.8542   -2.3667    0.0000 C   0  0  0  0  0  0  0  0  0  0  0  0
    6.2667   -7.3167    0.0000 C   0  0  0  0  0  0  0  0  0  0  0  0
    5.5750   -1.1375    0.0000 C   0  0  0  0  0  0  0  0  0  0  0  0
    7.0042   -1.1292    0.0000 C   0  0  0  0  0  0  0  0  0  0  0  0
    5.5625   -7.7250    0.0000 C   0  0  0  0  0  0  0  0  0  0  0  0
    6.9792   -7.7250    0.0000 C   0  0  0  0  0  0  0  0  0  0  0  0
    4.1417   -2.7875    0.0000 C   0  0  0  0  0  0  0  0  0  0  0  0
    4.1417   -3.6125    0.0000 C   0  0  0  0  0  0  0  0  0  0  0  0
    7.0042   -0.3042    0.0000 C   0  0  0  0  0  0  0  0  0  0  0  0
    5.5750   -0.3125    0.0000 C   0  0  0  0  0  0  0  0  0  0  0  0
    6.9792   -8.5417    0.0000 C   0  0  0  0  0  0  0  0  0  0  0  0
    5.5542   -8.5417    0.0000 C   0  0  0  0  0  0  0  0  0  0  0  0
    6.2917    0.1083    0.0000 C   0  0  0  0  0  0  0  0  0  0  0  0
    6.2667   -8.9542    0.0000 C   0  0  0  0  0  0  0  0  0  0  0  0
  2  1  1  0
  3  2  1  0
  4  5  1  0
  5  6  1  0
  6  1  1  0
  7 11  1  0
  8  2  1  0
  9  1  1  0
 10  5  1  0
 11  9  1  0
 12  7  1  0
 13 12  1  0
 14  3  2  0
 15  4  2  0
 16 13  1  0
 17 10  1  0
 18 10  2  0
 19 16  2  0
 20 16  1  0
 21 15  1  0
 22 14  1  0
 23 18  1  0
 24 17  2  0
 25 20  2  0
 26 19  1  0
 27 23  2  0
 28 25  1  0
  8  7  1  0
  4  3  1  0
 21 22  2  0
 27 24  1  0
 26 28  2  0
M  END

> <chembl_id>
CHEMBL266039

> <chembl_pref_name>
None

$$$$

     RDKit          2D

 28 30  0  0  0  0  0  0  0  0999 V2000
    7.1875  -11.5375    0.0000 C   0  0  0  0  0  0  0  0  0  0  0  0
    7.1917  -12.3667    0.0000 N   0  0  0  0  0  0  0  0  0  0  0  0
    5.7625  -12.3667    0.0000 C   0  0  0  0  0  0  0  0  0  0  0  0
    6.4792  -12.7792    0.0000 C   0  0  0  0  0  0  0  0  0  0  0  0
    6.4667  -11.1292    0.0000 N   0  0  0  0  0  0  0  0  0  0  0  0
    5.7625  -11.5417    0.0000 C   0  0  0  0  0  0  0  0  0  0  0  0
    7.9000  -11.1167    0.0000 N   0  0  0  0  0  0  0  0  0  0  0  0
   10.0375   -9.8792    0.0000 C   0  0  0  0  0  0  0  0  0  0  0  0
    5.0417  -12.7875    0.0000 C   0  0  0  0  0  0  0  0  0  0  0  0
    5.0417  -11.1292    0.0000 C   0  0  0  0  0  0  0  0  0  0  0  0
    4.3292  -12.3750    0.0000 C   0  0  0  0  0  0  0  0  0  0  0  0
    4.3292  -11.5500    0.0000 C   0  0  0  0  0  0  0  0  0  0  0  0
   10.0292   -9.0542    0.0000 N   0  0  0  0  0  0  0  0  0  0  0  0
    9.3250  -10.2917    0.0000 C   0  0  0  0  0  0  0  0  0  0  0  0
    8.6125  -11.5292    0.0000 C   0  0  0  0  0  0  0  0  0  0  0  0
    7.8917  -10.2917    0.0000 C   0  0  0  0  0  0  0  0  0  0  0  0
   10.7500  -10.2875    0.0000 O   0  0  0  0  0  0  0  0  0  0  0  0
    6.4792  -13.6042    0.0000 N   0  0  0  0  0  0  0  0  0  0  0  0
    8.6042   -9.8792    0.0000 C   0  0  0  0  0  0  0  0  0  0  0  0
    9.3250  -11.1167    0.0000 C   0  0  0  0  0  0  0  0  0  0  0  0
    3.6167  -12.7875    0.0000 O   0  0  0  0  0  0  0  0  0  0  0  0
    3.6167  -11.1375    0.0000 O   0  0  0  0  0  0  0  0  0  0  0  0
   10.7500   -8.6375    0.0000 C   0  0  0  0  0  0  0  0  0  0  0  0
    9.3167   -8.6417    0.0000 C   0  0  0  0  0  0  0  0  0  0  0  0
    3.6167  -10.3125    0.0000 C   0  0  0  0  0  0  0  0  0  0  0  0
    3.6167  -13.6125    0.0000 C   0  0  0  0  0  0  0  0  0  0  0  0
    9.3167   -7.8167    0.0000 C   0  0  0  0  0  0  0  0  0  0  0  0
   11.4625   -9.0500    0.0000 C   0  0  0  0  0  0  0  0  0  0  0  0
  2  1  1  0
  3  6  1  0
  4  2  2  0
  5  1  2  0
  6  5  1  0
  7  1  1  0
  8 14  1  0
  9  3  2  0
 10  6  2  0
 11 12  2  0
 12 10  1  0
 13  8  1  0
 14 19  1  0
 15  7  1  0
 16  7  1  0
 17  8  2  0
 18  4  1  0
 19 16  1  0
 20 15  1  0
 21 11  1  0
 22 12  1  0
 23 13  1  0
 24 13  1  0
 25 22  1  0
 26 21  1  0
 27 24  1  0
 28 23  1  0
  4  3  1  0
 14 20  1  0
 11  9  1  0
M  END

> <chembl_id>
CHEMBL267705

> <chembl_pref_name>
None

$$$$

     RDKit          2D

 27 29  0  0  0  0  0  0  0  0999 V2000
    6.7417   -3.3167    0.0000 C   0  0  0  0  0  0  0  0  0  0  0  0
    6.7500   -4.1417    0.0000 N   0  0  0  0  0  0  0  0  0  0  0  0
    5.3167   -4.1500    0.0000 C   0  0  0  0  0  0  0  0  0  0  0  0
    6.0375   -4.5625    0.0000 C   0  0  0  0  0  0  0  0  0  0  0  0
    6.0292   -2.9042    0.0000 N   0  0  0  0  0  0  0  0  0  0  0  0
    5.3167   -3.3250    0.0000 C   0  0  0  0  0  0  0  0  0  0  0  0
    7.4542   -2.9000    0.0000 N   0  0  0  0  0  0  0  0  0  0  0  0
    4.6042   -4.5667    0.0000 C   0  0  0  0  0  0  0  0  0  0  0  0
    4.6042   -2.9125    0.0000 C   0  0  0  0  0  0  0  0  0  0  0  0
    9.5917   -1.6542    0.0000 C   0  0  0  0  0  0  0  0  0  0  0  0
    3.8917   -4.1542    0.0000 C   0  0  0  0  0  0  0  0  0  0  0  0
    3.8917   -3.3292    0.0000 C   0  0  0  0  0  0  0  0  0  0  0  0
    7.4500   -2.0750    0.0000 C   0  0  0  0  0  0  0  0  0  0  0  0
    8.1667   -3.3125    0.0000 C   0  0  0  0  0  0  0  0  0  0  0  0
    8.8792   -2.0667    0.0000 C   0  0  0  0  0  0  0  0  0  0  0  0
   10.3042   -2.0667    0.0000 O   0  0  0  0  0  0  0  0  0  0  0  0
    6.0375   -5.3875    0.0000 N   0  0  0  0  0  0  0  0  0  0  0  0
    8.8792   -2.8917    0.0000 C   0  0  0  0  0  0  0  0  0  0  0  0
    8.1625   -1.6625    0.0000 C   0  0  0  0  0  0  0  0  0  0  0  0
    9.5917   -0.8292    0.0000 N   0  0  0  0  0  0  0  0  0  0  0  0
    3.1750   -4.5667    0.0000 O   0  0  0  0  0  0  0  0  0  0  0  0
    3.1792   -2.9167    0.0000 O   0  0  0  0  0  0  0  0  0  0  0  0
    8.1542    0.8125    0.0000 O   0  0  0  0  0  0  0  0  0  0  0  0
    8.8792   -0.4167    0.0000 C   0  0  0  0  0  0  0  0  0  0  0  0
    8.8750    0.4083    0.0000 C   0  0  0  0  0  0  0  0  0  0  0  0
    3.1792   -2.0917    0.0000 C   0  0  0  0  0  0  0  0  0  0  0  0
    3.1750   -5.3917    0.0000 C   0  0  0  0  0  0  0  0  0  0  0  0
  2  1  1  0
  3  6  1  0
  4  2  2  0
  5  1  2  0
  6  5  1  0
  7  1  1  0
  8  3  2  0
  9  6  2  0
 10 15  1  0
 11 12  2  0
 12  9  1  0
 13  7  1  0
 14  7  1  0
 15 18  1  0
 16 10  2  0
 17  4  1  0
 18 14  1  0
 19 13  1  0
 20 10  1  0
 21 11  1  0
 22 12  1  0
 23 25  1  0
 24 20  1  0
 25 24  1  0
 26 22  1  0
 27 21  1  0
  4  3  1  0
 19 15  1  0
 11  8  1  0
M  END

> <chembl_id>
CHEMBL6431

> <chembl_pref_name>
None

$$$$

     RDKit          2D

 35 38  0  0  0  0  0  0  0  0999 V2000
   11.4500   -1.5167    0.0000 N   0  0  0  0  0  0  0  0  0  0  0  0
    1.6417   -2.3375    0.0000 C   0  0  0  0  0  0  0  0  0  0  0  0
   11.4417   -2.2417    0.0000 C   0  0  0  0  0  0  0  0  0  0  0  0
    1.6375   -3.1625    0.0000 C   0  0  0  0  0  0  0  0  0  0  0  0
   10.8292   -1.1542    0.0000 C   0  0  0  0  0  0  0  0  0  0  0  0
    0.9250   -1.9250    0.0000 C   0  0  0  0  0  0  0  0  0  0  0  0
   10.2042   -2.2375    0.0000 S   0  0  0  0  0  0  0  0  0  0  0  0
    0.2125   -3.1667    0.0000 C   0  0  0  0  0  0  0  0  0  0  0  0
    0.9250   -3.5792    0.0000 C   0  0  0  0  0  0  0  0  0  0  0  0
    0.2125   -2.3375    0.0000 C   0  0  0  0  0  0  0  0  0  0  0  0
    2.3542   -1.9167    0.0000 O   0  0  0  0  0  0  0  0  0  0  0  0
   10.2042   -1.5167    0.0000 C   0  0  0  0  0  0  0  0  0  0  0  0
    3.0667   -2.3375    0.0000 C   0  0  0  0  0  0  0  0  0  0  0  0
    2.3542   -3.5792    0.0000 C   0  0  0  0  0  0  0  0  0  0  0  0
   12.0292   -2.8292    0.0000 O   0  0  0  0  0  0  0  0  0  0  0  0
   10.8250   -0.4292    0.0000 O   0  0  0  0  0  0  0  0  0  0  0  0
    9.4917   -1.1042    0.0000 C   0  0  0  0  0  0  0  0  0  0  0  0
    3.7792   -2.7500    0.0000 C   0  0  0  0  0  0  0  0  0  0  0  0
    3.0667   -3.1667    0.0000 C   0  0  0  0  0  0  0  0  0  0  0  0
   -0.5083   -3.5750    0.0000 O   0  0  0  0  0  0  0  0  0  0  0  0
    4.4917   -2.3375    0.0000 N   0  0  0  0  0  0  0  0  0  0  0  0
    8.7792   -1.5167    0.0000 C   0  0  0  0  0  0  0  0  0  0  0  0
    7.3542   -2.3375    0.0000 C   0  0  0  0  0  0  0  0  0  0  0  0
    8.0625   -1.1042    0.0000 C   0  0  0  0  0  0  0  0  0  0  0  0
    8.7792   -2.3417    0.0000 C   0  0  0  0  0  0  0  0  0  0  0  0
    0.9167   -1.1000    0.0000 C   0  0  0  0  0  0  0  0  0  0  0  0
    0.9292   -4.4042    0.0000 C   0  0  0  0  0  0  0  0  0  0  0  0
   -0.5000   -1.9292    0.0000 C   0  0  0  0  0  0  0  0  0  0  0  0
    8.0667   -2.7542    0.0000 C   0  0  0  0  0  0  0  0  0  0  0  0
    7.3500   -1.5167    0.0000 C   0  0  0  0  0  0  0  0  0  0  0  0
    6.6375   -2.7500    0.0000 O   0  0  0  0  0  0  0  0  0  0  0  0
    5.9250   -2.3375    0.0000 C   0  0  0  0  0  0  0  0  0  0  0  0
    3.7875   -1.9292    0.0000 C   0  0  0  0  0  0  0  0  0  0  0  0
    5.2042   -2.7500    0.0000 C   0  0  0  0  0  0  0  0  0  0  0  0
    4.4917   -1.5125    0.0000 C   0  0  0  0  0  0  0  0  0  0  0  0
  2 11  1  0
  3  1  1  0
  4 14  1  0
  5  1  1  0
  6  2  2  0
  7  3  1  0
  8  9  1  0
  9  4  2  0
 10  6  1  0
 11 13  1  0
 12  5  1  0
 13 18  1  0
 14 19  1  0
 15  3  2  0
 16  5  2  0
 17 12  1  0
 18 21  1  0
 19 13  1  0
 20  8  1  0
 21 34  1  0
 22 17  1  0
 23 29  2  0
 24 22  1  0
 25 22  2  0
 26  6  1  0
 27  9  1  0
 28 10  1  0
 29 25  1  0
 30 24  2  0
 31 23  1  0
 32 31  1  0
 33 13  1  0
 34 32  1  0
 35 21  1  0
  7 12  1  0
 23 30  1  0
  4  2  1  0
  8 10  2  0
M  END

> <chembl_id>
CHEMBL6432

> <chembl_pref_name>
None

$$$$

     RDKit          2D

 17 18  0  0  0  0  0  0  0  0999 V2000
    2.8542   -2.7000    0.0000 N   0  0  0  0  0  0  0  0  0  0  0  0
    3.5667   -2.2917    0.0000 C   0  0  0  0  0  0  0  0  0  0  0  0
    3.5667   -1.4667    0.0000 N   0  0  0  0  0  0  0  0  0  0  0  0
    2.8542   -3.5250    0.0000 C   0  0  0  0  0  0  0  0  0  0  0  0
    2.1500   -2.2917    0.0000 C   0  0  0  0  0  0  0  0  0  0  0  0
    2.1500   -1.4667    0.0000 C   0  0  0  0  0  0  0  0  0  0  0  0
    2.8542   -1.0500    0.0000 C   0  0  0  0  0  0  0  0  0  0  0  0
    2.1917   -3.0375    0.0000 O   0  0  0  0  0  0  0  0  0  0  0  0
    2.6042   -4.3042    0.0000 C   0  0  0  0  0  0  0  0  0  0  0  0
    1.5250   -3.5250    0.0000 C   0  0  0  0  0  0  0  0  0  0  0  0
    1.7792   -4.3042    0.0000 C   0  0  0  0  0  0  0  0  0  0  0  0
    4.2875   -2.7042    0.0000 O   0  0  0  0  0  0  0  0  0  0  0  0
    2.8542   -0.2167    0.0000 O   0  0  0  0  0  0  0  0  0  0  0  0
    1.4292   -1.0542    0.0000 F   0  0  0  0  0  0  0  0  0  0  0  0
    1.2917   -4.9750    0.0000 O   0  0  0  0  0  0  0  0  0  0  0  0
    0.7417   -3.2667    0.0000 C   0  0  0  0  0  0  0  0  0  0  0  0
    0.5667   -2.4625    0.0000 O   0  0  0  0  0  0  0  0  0  0  0  0
  2  1  1  0
  3  2  1  0
  4  1  1  0
  5  1  1  0
  6  5  2  0
  7  6  1  0
  8  4  1  0
  9  4  1  0
 10  8  1  0
 11  9  1  0
 12  2  2  0
 13  7  2  0
 14  6  1  0
 15 11  1  0
 16 10  1  0
 17 16  1  0
  7  3  1  0
 11 10  1  0
M  END

> <chembl_id>
CHEMBL6628

> <chembl_pref_name>
None

$$$$

     RDKit          2D

 24 25  0  0  0  0  0  0  0  0999 V2000
    3.9125   -3.6417    0.0000 Na  0  0  0  0  0 15  0  0  0  0  0  0
    7.0042   -2.0167    0.0000 S   0  0  0  0  0  0  0  0  0  0  0  0
    6.5167   -3.2625    0.0000 N   0  0  0  0  0  0  0  0  0  0  0  0
    7.6500   -2.5417    0.0000 C   0  0  0  0  0  0  0  0  0  0  0  0
    6.3167   -2.4542    0.0000 C   0  0  0  0  0  0  0  0  0  0  0  0
    7.3417   -3.3042    0.0000 C   0  0  0  0  0  0  0  0  0  0  0  0
    5.7292   -3.4667    0.0000 C   0  0  0  0  0  0  0  0  0  0  0  0
    5.5292   -2.6625    0.0000 C   0  0  0  0  0  0  0  0  0  0  0  0
    9.6667   -1.6417    0.0000 N   0  0  0  0  0  0  0  0  0  0  0  0
    9.0292   -2.1625    0.0000 N   0  0  0  0  0  0  0  0  0  0  0  0
    7.7917   -4.0042    0.0000 C   0  0  0  0  0  0  0  0  0  0  0  0
    8.2292   -1.9542    0.0000 C   0  0  0  0  0  0  0  0  0  0  0  0
   10.3542   -2.0875    0.0000 N   0  0  0  0  0  0  0  0  0  0  0  0
    6.4167   -1.4292    0.0000 O   0  0  0  0  0  0  0  0  0  0  0  0
    7.7167   -1.6000    0.0000 O   0  0  0  0  0  0  0  0  0  0  0  0
   10.1417   -2.8792    0.0000 C   0  0  0  0  0  0  0  0  0  0  0  0
    9.3250   -2.9292    0.0000 C   0  0  0  0  0  0  0  0  0  0  0  0
    5.3042   -4.1750    0.0000 O   0  0  0  0  0  0  0  0  0  0  0  0
    7.4167   -4.7375    0.0000 O   0  0  0  0  0  0  0  0  0  0  0  0
    8.6167   -3.9667    0.0000 O   0  0  0  0  0  0  0  0  0  0  0  0
    8.4417   -2.7542    0.0000 C   0  0  0  0  0  0  0  0  0  0  0  0
    4.8250   -2.2375    0.0000 C   0  0  0  0  0  0  0  0  0  0  0  0
    4.8375   -1.4125    0.0000 O   0  0  0  0  0  0  0  0  0  0  0  0
    5.9157   -1.5381    0.0000 H   0  0  0  0  0  0  0  0  0  0  0  0
  3  5  1  0
  4  2  1  0
  5  2  1  0
  6  4  1  0
  7  8  1  0
  8  5  1  0
  9 10  1  0
 12 10  1  0
  6 11  1  6
  4 12  1  0
 13  9  2  0
 14  2  2  0
 15  2  2  0
 16 17  2  0
 17 10  1  0
 18  7  2  0
 19 11  1  0
 20 11  2  0
  4 21  1  6
  8 22  1  1
 23 22  1  0
  3  6  1  0
  7  3  1  0
 16 13  1  0
  5 24  1  6
M  CHG  2   1   1  19  -1
M  END

> <chembl_id>
CHEMBL6533

> <chembl_pref_name>
None

$$$$

     RDKit          2D

 39 44  0  0  1  0  0  0  0  0999 V2000
    9.4875   -5.9417    0.0000 C   0  0  0  0  0  0  0  0  0  0  0  0
    9.4875   -5.1250    0.0000 C   0  0  0  0  0  0  0  0  0  0  0  0
    4.4792   -7.3417    0.0000 C   0  0  0  0  0  0  0  0  0  0  0  0
    7.2500   -6.3500    0.0000 C   0  0  0  0  0  0  0  0  0  0  0  0
   10.2667   -3.8167    0.0000 C   0  0  0  0  0  0  0  0  0  0  0  0
    8.7542   -6.3500    0.0000 C   0  0  0  0  0  0  0  0  0  0  0  0
    3.8042   -7.8125    0.0000 C   0  0  0  0  0  0  0  0  0  0  0  0
   10.2667   -4.7042    0.0000 C   0  0  0  0  0  0  0  0  0  0  0  0
   10.9750   -5.9417    0.0000 C   0  0  0  0  0  0  0  0  0  0  0  0
    7.9875   -5.9417    0.0000 C   0  0  0  0  0  0  0  0  0  0  0  0
    4.4042   -6.5167    0.0000 C   0  0  0  0  0  0  0  0  0  0  0  0
    3.6625   -6.1667    0.0000 O   0  0  0  0  0  0  0  0  0  0  0  0
    3.0542   -7.4667    0.0000 C   0  0  0  0  0  0  0  0  0  0  0  0
   10.9750   -5.1250    0.0000 C   0  0  0  0  0  0  0  0  0  0  0  0
    9.5250   -3.3625    0.0000 C   0  0  0  0  0  0  0  0  0  0  0  0
    7.2500   -7.2375    0.0000 C   0  0  0  0  0  0  0  0  0  0  0  0
    2.9875   -6.6417    0.0000 C   0  0  0  0  0  0  0  0  0  0  0  0
    8.7542   -4.7042    0.0000 C   0  0  0  0  0  0  0  0  0  0  0  0
    9.7542   -2.4917    0.0000 C   0  0  0  0  0  0  0  0  0  0  0  0
    5.1500   -7.6542    0.0000 O   0  0  0  0  0  0  0  0  0  0  0  0
    7.9875   -5.1250    0.0000 C   0  0  0  0  0  0  0  0  0  0  0  0
   10.7042   -2.4917    0.0000 O   0  0  0  0  0  0  0  0  0  0  0  0
    6.5292   -5.9417    0.0000 C   0  0  0  0  0  0  0  0  0  0  0  0
    8.7542   -7.2375    0.0000 C   0  0  0  0  0  0  0  0  0  0  0  0
   10.9667   -3.2667    0.0000 C   0  0  0  0  0  0  0  0  0  0  0  0
    6.5292   -7.6375    0.0000 C   0  0  0  0  0  0  0  0  0  0  0  0
    7.9875   -7.6375    0.0000 C   0  0  0  0  0  0  0  0  0  0  0  0
    9.4875   -6.9542    0.0000 O   0  0  0  0  0  0  0  0  0  0  0  0
    5.7542   -7.2375    0.0000 C   0  0  0  0  0  0  0  0  0  0  0  0
    9.2167   -1.8625    0.0000 O   0  0  0  0  0  0  0  0  0  0  0  0
    3.8750   -8.6292    0.0000 O   0  0  0  0  0  0  0  0  0  0  0  0
    5.0792   -6.0500    0.0000 O   0  0  0  0  0  0  0  0  0  0  0  0
    2.3792   -7.9417    0.0000 O   0  0  0  0  0  0  0  0  0  0  0  0
    9.4875   -4.1875    0.0000 C   0  0  0  0  0  0  0  0  0  0  0  0
   11.6875   -4.7167    0.0000 O   0  0  0  0  0  0  0  0  0  0  0  0
    5.7542   -6.3500    0.0000 C   0  0  0  0  0  0  0  0  0  0  0  0
    7.2500   -5.4917    0.0000 C   0  0  0  0  0  0  0  0  0  0  0  0
    2.2417   -6.2917    0.0000 C   0  0  0  0  0  0  0  0  0  0  0  0
   10.8750   -4.3542    0.0000 H   0  0  0  0  0  0  0  0  0  0  0  0
  2  1  1  0
  3 20  1  0
  4 10  1  0
  5  8  1  0
  6  1  1  0
  7  3  1  0
  8  2  1  0
  9  1  1  0
 10  6  1  0
 11  3  1  0
 12 11  1  0
 13  7  1  0
 14  9  1  0
 15  5  2  0
 16 27  1  0
 17 12  1  0
 18  2  1  0
 19 15  1  0
 20 29  1  0
 21 10  1  0
 22 25  1  0
 23  4  1  0
 24  6  1  0
 25  5  1  0
 26 16  1  0
 27 24  1  0
 28  1  1  0
 29 26  1  0
 30 19  2  0
 31  7  1  0
 32 11  1  0
 33 13  1  0
 34  2  1  0
 35 14  1  0
 36 23  1  0
 37  4  1  0
 38 17  1  0
  8 39  1  6
 14  8  1  0
 21 18  1  0
 16  4  1  0
 29 36  1  0
 22 19  1  0
 17 13  1  0
M  END

> <chembl_id>
CHEMBL6579

> <chembl_pref_name>
None

$$$$

     RDKit          2D

 26 29  0  0  0  0  0  0  0  0999 V2000
    7.0042   -3.6125    0.0000 N   0  0  0  0  0  0  0  0  0  0  0  0
    6.2875   -4.0250    0.0000 C   0  0  0  0  0  0  0  0  0  0  0  0
    5.5667   -3.6042    0.0000 C   0  0  0  0  0  0  0  0  0  0  0  0
    5.5750   -2.7792    0.0000 C   0  0  0  0  0  0  0  0  0  0  0  0
    6.2875   -2.3667    0.0000 C   0  0  0  0  0  0  0  0  0  0  0  0
    7.0042   -2.7792    0.0000 C   0  0  0  0  0  0  0  0  0  0  0  0
    6.9917   -5.2625    0.0000 N   0  0  0  0  0  0  0  0  0  0  0  0
    6.2792   -4.8417    0.0000 C   0  0  0  0  0  0  0  0  0  0  0  0
    7.7167   -4.0250    0.0000 C   0  0  0  0  0  0  0  0  0  0  0  0
    6.2875   -1.5417    0.0000 C   0  0  0  0  0  0  0  0  0  0  0  0
    7.7125   -4.8542    0.0000 C   0  0  0  0  0  0  0  0  0  0  0  0
    4.8542   -4.0250    0.0000 C   0  0  0  0  0  0  0  0  0  0  0  0
    4.8542   -2.3667    0.0000 C   0  0  0  0  0  0  0  0  0  0  0  0
    6.9917   -6.0875    0.0000 C   0  0  0  0  0  0  0  0  0  0  0  0
    5.5750   -1.1375    0.0000 C   0  0  0  0  0  0  0  0  0  0  0  0
    7.0042   -1.1292    0.0000 C   0  0  0  0  0  0  0  0  0  0  0  0
    6.2750   -6.5000    0.0000 C   0  0  0  0  0  0  0  0  0  0  0  0
    5.5417   -8.5542    0.0000 C   0  0  0  0  0  0  0  0  0  0  0  0
    5.5542   -7.7292    0.0000 C   0  0  0  0  0  0  0  0  0  0  0  0
    6.2667   -7.3250    0.0000 C   0  0  0  0  0  0  0  0  0  0  0  0
    4.1417   -2.7875    0.0000 C   0  0  0  0  0  0  0  0  0  0  0  0
    4.1417   -3.6125    0.0000 C   0  0  0  0  0  0  0  0  0  0  0  0
    4.8292   -8.9667    0.0000 C   0  0  0  0  0  0  0  0  0  0  0  0
    5.5750   -0.3125    0.0000 C   0  0  0  0  0  0  0  0  0  0  0  0
    7.0042   -0.3042    0.0000 C   0  0  0  0  0  0  0  0  0  0  0  0
    6.2917    0.1083    0.0000 C   0  0  0  0  0  0  0  0  0  0  0  0
  2  1  1  0
  3  2  1  0
  4  5  1  0
  5  6  1  0
  6  1  1  0
  7 11  1  0
  8  2  1  0
  9  1  1  0
 10  5  1  0
 11  9  1  0
 12  3  2  0
 13  4  2  0
 14  7  1  0
 15 10  1  0
 16 10  2  0
 17 14  1  0
 18 19  1  0
 19 20  1  0
 20 17  1  0
 21 13  1  0
 22 12  1  0
 23 18  1  0
 24 15  2  0
 25 16  1  0
 26 25  2  0
  8  7  1  0
  4  3  1  0
 21 22  2  0
 26 24  1  0
M  END

> <chembl_id>
CHEMBL6638

> <chembl_pref_name>
None

$$$$

     RDKit          2D

 33 36  0  0  0  0  0  0  0  0999 V2000
    3.8125   -6.6042    0.0000 C   0  0  0  0  0  0  0  0  0  0  0  0
    3.8167   -7.4375    0.0000 N   0  0  0  0  0  0  0  0  0  0  0  0
    2.3792   -7.4417    0.0000 C   0  0  0  0  0  0  0  0  0  0  0  0
    3.1042   -7.8542    0.0000 C   0  0  0  0  0  0  0  0  0  0  0  0
    3.0917   -6.2000    0.0000 N   0  0  0  0  0  0  0  0  0  0  0  0
    2.3792   -6.6167    0.0000 C   0  0  0  0  0  0  0  0  0  0  0  0
    4.5250   -6.1917    0.0000 N   0  0  0  0  0  0  0  0  0  0  0  0
    1.6667   -7.8542    0.0000 C   0  0  0  0  0  0  0  0  0  0  0  0
    1.6667   -6.2042    0.0000 C   0  0  0  0  0  0  0  0  0  0  0  0
    6.6625   -4.9500    0.0000 C   0  0  0  0  0  0  0  0  0  0  0  0
    0.9542   -7.4417    0.0000 C   0  0  0  0  0  0  0  0  0  0  0  0
    0.9542   -6.6167    0.0000 C   0  0  0  0  0  0  0  0  0  0  0  0
    4.5167   -5.3667    0.0000 C   0  0  0  0  0  0  0  0  0  0  0  0
    5.2375   -6.6042    0.0000 C   0  0  0  0  0  0  0  0  0  0  0  0
    5.9500   -5.3625    0.0000 C   0  0  0  0  0  0  0  0  0  0  0  0
    7.3750   -5.3542    0.0000 O   0  0  0  0  0  0  0  0  0  0  0  0
    3.1042   -8.6792    0.0000 N   0  0  0  0  0  0  0  0  0  0  0  0
    5.9500   -6.1875    0.0000 C   0  0  0  0  0  0  0  0  0  0  0  0
    5.2292   -4.9542    0.0000 C   0  0  0  0  0  0  0  0  0  0  0  0
    6.6542   -4.1250    0.0000 N   0  0  0  0  0  0  0  0  0  0  0  0
    0.2417   -7.8542    0.0000 O   0  0  0  0  0  0  0  0  0  0  0  0
    0.2417   -6.2042    0.0000 O   0  0  0  0  0  0  0  0  0  0  0  0
    5.2250   -1.6542    0.0000 C   0  0  0  0  0  0  0  0  0  0  0  0
    5.2250   -2.4792    0.0000 O   0  0  0  0  0  0  0  0  0  0  0  0
    5.9417   -3.7125    0.0000 C   0  0  0  0  0  0  0  0  0  0  0  0
    5.9417   -2.8875    0.0000 C   0  0  0  0  0  0  0  0  0  0  0  0
    0.2417   -8.6792    0.0000 C   0  0  0  0  0  0  0  0  0  0  0  0
    0.2417   -5.3792    0.0000 C   0  0  0  0  0  0  0  0  0  0  0  0
    5.9250   -1.2375    0.0000 C   0  0  0  0  0  0  0  0  0  0  0  0
    4.5125   -1.2542    0.0000 C   0  0  0  0  0  0  0  0  0  0  0  0
    4.5000   -0.4292    0.0000 C   0  0  0  0  0  0  0  0  0  0  0  0
    5.9167   -0.4167    0.0000 C   0  0  0  0  0  0  0  0  0  0  0  0
    5.2042   -0.0125    0.0000 C   0  0  0  0  0  0  0  0  0  0  0  0
  2  1  1  0
  3  6  1  0
  4  2  2  0
  5  1  2  0
  6  5  1  0
  7  1  1  0
  8  3  2  0
  9  6  2  0
 10 15  1  0
 11 12  2  0
 12  9  1  0
 13  7  1  0
 14  7  1  0
 15 18  1  0
 16 10  2  0
 17  4  1  0
 18 14  1  0
 19 13  1  0
 20 10  1  0
 21 11  1  0
 22 12  1  0
 23 24  1  0
 24 26  1  0
 25 20  1  0
 26 25  1  0
 27 21  1  0
 28 22  1  0
 29 23  1  0
 30 23  2  0
 31 30  1  0
 32 29  2  0
 33 31  2  0
  4  3  1  0
 19 15  1  0
 11  8  1  0
 33 32  1  0
M  END

> <chembl_id>
CHEMBL266317

> <chembl_pref_name>
None

$$$$

     RDKit          2D

 33 35  0  0  1  0  0  0  0  0999 V2000
   -4.8750    1.2000    0.0000 C   0  0  0  0  0  0  0  0  0  0  0  0
   -4.1708    0.7875    0.0000 C   0  0  0  0  0  0  0  0  0  0  0  0
   -5.5958    0.7958    0.0000 N   0  0  0  0  0  0  0  0  0  0  0  0
   -4.8833   -0.4417    0.0000 N   0  0  0  0  0  0  0  0  0  0  0  0
    2.2500    2.0583    0.0000 N   0  0  0  0  0  0  0  0  0  0  0  0
   -4.1708   -0.0292    0.0000 C   0  0  0  0  0  0  0  0  0  0  0  0
   -5.5958   -0.0250    0.0000 C   0  0  0  0  0  0  0  0  0  0  0  0
    1.5375    2.4625    0.0000 C   0  0  0  0  0  0  0  0  0  0  0  0
    2.9625    2.4708    0.0000 C   0  0  0  0  0  0  0  0  0  0  0  0
    3.6792    2.0583    0.0000 C   0  0  0  0  0  0  0  0  0  0  0  0
   -1.3125    0.8083    0.0000 N   0  0  0  0  0  0  0  0  0  0  0  0
   -0.6208   -0.4625    0.0000 C   0  0  0  0  0  0  0  0  0  0  0  0
    0.0875   -0.9042    0.0000 C   0  0  0  0  0  0  0  0  0  0  0  0
   -3.4583    1.2083    0.0000 C   0  0  0  0  0  0  0  0  0  0  0  0
    0.8250    2.0458    0.0000 C   0  0  0  0  0  0  0  0  0  0  0  0
   -0.6000    1.2208    0.0000 C   0  0  0  0  0  0  0  0  0  0  0  0
   -4.8708    2.0250    0.0000 O   0  0  0  0  0  0  0  0  0  0  0  0
   -2.0333    1.2125    0.0000 C   0  0  0  0  0  0  0  0  0  0  0  0
    1.5292    3.2958    0.0000 O   0  0  0  0  0  0  0  0  0  0  0  0
   -2.7458    0.7958    0.0000 C   0  0  0  0  0  0  0  0  0  0  0  0
    3.6792    1.2333    0.0000 O   0  0  0  0  0  0  0  0  0  0  0  0
   -3.4583   -0.4417    0.0000 C   0  0  0  0  0  0  0  0  0  0  0  0
    0.8250    1.2208    0.0000 C   0  0  0  0  0  0  0  0  0  0  0  0
    0.1042    2.4583    0.0000 C   0  0  0  0  0  0  0  0  0  0  0  0
    0.1125    0.8083    0.0000 C   0  0  0  0  0  0  0  0  0  0  0  0
   -0.6083    2.0375    0.0000 C   0  0  0  0  0  0  0  0  0  0  0  0
    2.9542    3.2958    0.0000 C   0  0  0  0  0  0  0  0  0  0  0  0
   -1.3125   -0.0167    0.0000 C   0  0  0  0  0  0  0  0  0  0  0  0
    4.3917    2.4750    0.0000 O   0  0  0  0  0  0  0  0  0  0  0  0
   -2.7458   -0.0292    0.0000 C   0  0  0  0  0  0  0  0  0  0  0  0
   -6.3042   -0.4292    0.0000 C   0  0  0  0  0  0  0  0  0  0  0  0
    3.6667    3.7083    0.0000 C   0  0  0  0  0  0  0  0  0  0  0  0
    2.2417    3.7083    0.0000 C   0  0  0  0  0  0  0  0  0  0  0  0
  2  1  1  0
  3  1  2  0
  4  7  2  0
  5  8  1  0
  6  2  2  0
  7  3  1  0
  8 15  1  0
  9  5  1  0
 10  9  1  0
 11 18  1  0
 12 28  1  0
 13 12  3  0
 14  2  1  0
 15 24  1  0
 16 11  1  0
 17  1  1  0
 18 20  1  0
 19  8  2  0
 20 14  2  0
 21 10  2  0
 22  6  1  0
 23 25  1  0
 24 26  2  0
 25 16  2  0
 26 16  1  0
  9 27  1  6
 28 11  1  0
 29 10  1  0
 30 20  1  0
 31  7  1  0
 32 27  1  0
 33 27  1  0
  4  6  1  0
 30 22  2  0
 15 23  2  0
M  END

> <chembl_id>
CHEMBL267832

> <chembl_pref_name>
None

$$$$

     RDKit          2D

 18 19  0  0  0  0  0  0  0  0999 V2000
   10.7582  -23.3680    0.0000 C   0  0  0  0  0  0  0  0  0  0  0  0
   10.7582  -22.5466    0.0000 C   0  0  0  0  0  0  0  0  0  0  0  0
    9.9775  -23.6194    0.0000 O   0  0  0  0  0  0  0  0  0  0  0  0
    9.4929  -22.9573    0.0000 C   0  0  0  0  0  0  0  0  0  0  0  0
    9.9755  -22.2873    0.0000 C   0  0  0  0  0  0  0  0  0  0  0  0
    9.4874  -21.6213    0.0000 O   0  0  0  0  0  0  0  0  0  0  0  0
    8.7032  -21.8796    0.0000 C   0  0  0  0  0  0  0  0  0  0  0  0
    8.7066  -22.7053    0.0000 C   0  0  0  0  0  0  0  0  0  0  0  0
    8.0439  -23.1908    0.0000 O   0  0  0  0  0  0  0  0  0  0  0  0
    8.1331  -24.0074    0.0000 N   0  0  0  0  0  0  0  0  0  0  0  0
    8.8881  -24.3412    0.0000 O   0  0  0  0  0  0  0  0  0  0  0  0
    7.4738  -24.4957    0.0000 O   0  0  0  0  0  0  0  0  0  0  0  0
    8.9078  -23.5464    0.0000 H   0  0  0  0  0  0  0  0  0  0  0  0
   11.4242  -22.0656    0.0000 O   0  0  0  0  0  0  0  0  0  0  0  0
   10.3848  -21.5799    0.0000 H   0  0  0  0  0  0  0  0  0  0  0  0
   12.1737  -22.4018    0.0000 N   0  0  0  0  0  0  0  0  0  0  0  0
   12.8432  -21.9191    0.0000 O   0  0  0  0  0  0  0  0  0  0  0  0
   12.2609  -23.2174    0.0000 O   0  0  0  0  0  0  0  0  0  0  0  0
  1  2  1  0
  2  5  1  0
  4  3  1  0
  3  1  1  0
  4  5  1  0
  5  6  1  0
  6  7  1  0
  7  8  1  0
  8  4  1  0
  8  9  1  6
  9 10  1  0
 10 11  2  0
 10 12  1  0
  2 14  1  1
 14 16  1  0
 16 17  2  0
 16 18  1  0
  5 15  1  1
  4 13  1  1
M  CHG  4  10   1  12  -1  16   1  18  -1
M  END

> <chembl_id>
CHEMBL6622

> <chembl_pref_name>
ISOSORBIDE DINITRATE

$$$$

     RDKit          2D

 22 22  0  0  0  0  0  0  0  0999 V2000
   10.9417   -3.2125    0.0000 Na  0  0  0  0  0 15  0  0  0  0  0  0
   10.9292    0.2458    0.0000 S   0  0  0  0  0  0  0  0  0  0  0  0
   10.6167   -1.0542    0.0000 N   0  0  0  0  0  0  0  0  0  0  0  0
   11.6292   -0.1875    0.0000 C   0  0  0  0  0  0  0  0  0  0  0  0
   10.3042   -0.2917    0.0000 C   0  0  0  0  0  0  0  0  0  0  0  0
   11.4417   -0.9917    0.0000 C   0  0  0  0  0  0  0  0  0  0  0  0
    9.8542   -1.3667    0.0000 C   0  0  0  0  0  0  0  0  0  0  0  0
    9.5542   -0.5917    0.0000 C   0  0  0  0  0  0  0  0  0  0  0  0
   11.9792   -1.6167    0.0000 C   0  0  0  0  0  0  0  0  0  0  0  0
   11.5667    0.7583    0.0000 O   0  0  0  0  0  0  0  0  0  0  0  0
   10.2667    0.7500    0.0000 O   0  0  0  0  0  0  0  0  0  0  0  0
   12.1292    0.4750    0.0000 C   0  0  0  0  0  0  0  0  0  0  0  0
   13.3750   -1.2167    0.0000 N   0  0  0  0  0  0  0  0  0  0  0  0
   13.1625   -0.4167    0.0000 C   0  0  0  0  0  0  0  0  0  0  0  0
    9.5417   -2.1292    0.0000 O   0  0  0  0  0  0  0  0  0  0  0  0
   11.7042   -2.3917    0.0000 O   0  0  0  0  0  0  0  0  0  0  0  0
   12.9500    0.3750    0.0000 C   0  0  0  0  0  0  0  0  0  0  0  0
   12.7917   -1.4667    0.0000 O   0  0  0  0  0  0  0  0  0  0  0  0
   12.4542   -0.2875    0.0000 C   0  0  0  0  0  0  0  0  0  0  0  0
    8.7917   -0.2750    0.0000 C   0  0  0  0  0  0  0  0  0  0  0  0
    8.1417   -0.7667    0.0000 O   0  0  0  0  0  0  0  0  0  0  0  0
    9.7854    0.5632    0.0000 H   0  0  0  0  0  0  0  0  0  0  0  0
  3  5  1  0
  4  2  1  0
  5  2  1  0
  6  4  1  0
  7  8  1  0
  8  5  1  0
  6  9  1  6
 10  2  2  0
 11  2  2  0
  4 12  1  0
 13 14  3  0
 14 17  1  0
 15  7  2  0
 16  9  1  0
 17 12  2  0
 18  9  2  0
  4 19  1  6
  8 20  1  1
 21 20  1  0
  3  6  1  0
  7  3  1  0
  5 22  1  6
M  CHG  2   1   1  16  -1
M  END

> <chembl_id>
CHEMBL6469

> <chembl_pref_name>
None

$$$$

     RDKit          2D

 22 22  0  0  0  0  0  0  0  0999 V2000
    1.3917   -3.4625    0.0000 Na  0  0  0  0  0 15  0  0  0  0  0  0
    1.9292    0.1250    0.0000 S   0  0  0  0  0  0  0  0  0  0  0  0
    1.6167   -1.1750    0.0000 N   0  0  0  0  0  0  0  0  0  0  0  0
    2.6292   -0.3042    0.0000 C   0  0  0  0  0  0  0  0  0  0  0  0
    1.3042   -0.4125    0.0000 C   0  0  0  0  0  0  0  0  0  0  0  0
    2.4417   -1.1125    0.0000 C   0  0  0  0  0  0  0  0  0  0  0  0
    0.8542   -1.4875    0.0000 C   0  0  0  0  0  0  0  0  0  0  0  0
    0.5542   -0.7125    0.0000 C   0  0  0  0  0  0  0  0  0  0  0  0
    2.9792   -1.7375    0.0000 C   0  0  0  0  0  0  0  0  0  0  0  0
    2.5667    0.6375    0.0000 O   0  0  0  0  0  0  0  0  0  0  0  0
    1.2667    0.6333    0.0000 O   0  0  0  0  0  0  0  0  0  0  0  0
    3.1292    0.3583    0.0000 C   0  0  0  0  0  0  0  0  0  0  0  0
    4.9417    1.5708    0.0000 N   0  0  0  0  0  0  0  0  0  0  0  0
    4.4417    0.9125    0.0000 C   0  0  0  0  0  0  0  0  0  0  0  0
    0.5417   -2.2500    0.0000 O   0  0  0  0  0  0  0  0  0  0  0  0
    2.7042   -2.5125    0.0000 O   0  0  0  0  0  0  0  0  0  0  0  0
    3.9542    0.2583    0.0000 C   0  0  0  0  0  0  0  0  0  0  0  0
    3.7917   -1.5875    0.0000 O   0  0  0  0  0  0  0  0  0  0  0  0
    3.4542   -0.4042    0.0000 C   0  0  0  0  0  0  0  0  0  0  0  0
   -0.2083   -0.3917    0.0000 C   0  0  0  0  0  0  0  0  0  0  0  0
   -0.8583   -0.8875    0.0000 O   0  0  0  0  0  0  0  0  0  0  0  0
    0.7854    0.4424    0.0000 H   0  0  0  0  0  0  0  0  0  0  0  0
  3  5  1  0
  4  2  1  0
  5  2  1  0
  6  4  1  0
  7  8  1  0
  8  5  1  0
  6  9  1  6
 10  2  2  0
 11  2  2  0
  4 12  1  0
 13 14  3  0
 14 17  1  0
 15  7  2  0
 16  9  1  0
 17 12  2  0
 18  9  2  0
  4 19  1  6
  8 20  1  1
 21 20  1  0
  3  6  1  0
  3  7  1  0
  5 22  1  6
M  CHG  2   1   1  16  -1
M  END

> <chembl_id>
CHEMBL269471

> <chembl_pref_name>
None

$$$$

     RDKit          2D

 21 23  0  0  1  0  0  0  0  0999 V2000
    5.8250   -2.9417    0.0000 C   0  0  0  0  0  0  0  0  0  0  0  0
    5.1125   -3.3542    0.0000 C   0  0  0  0  0  0  0  0  0  0  0  0
    5.8250   -2.1167    0.0000 N   0  0  0  0  0  0  0  0  0  0  0  0
    6.5500   -3.3542    0.0000 C   0  0  0  0  0  0  0  0  0  0  0  0
    6.5500   -4.1917    0.0000 C   0  0  0  0  0  0  0  0  0  0  0  0
    5.8250   -4.6042    0.0000 O   0  0  0  0  0  0  0  0  0  0  0  0
    5.1125   -4.1792    0.0000 C   0  0  0  0  0  0  0  0  0  0  0  0
    6.5000   -1.6292    0.0000 C   0  0  0  0  0  0  0  0  0  0  0  0
    2.2500   -2.5292    0.0000 N   0  0  0  0  0  0  0  0  0  0  0  0
    4.4000   -2.9417    0.0000 C   0  0  0  0  0  0  0  0  0  0  0  0
    2.9750   -2.9417    0.0000 C   0  0  0  0  0  0  0  0  0  0  0  0
    7.2750   -1.8917    0.0000 O   0  0  0  0  0  0  0  0  0  0  0  0
    4.4000   -4.6042    0.0000 C   0  0  0  0  0  0  0  0  0  0  0  0
    3.6875   -3.3542    0.0000 C   0  0  0  0  0  0  0  0  0  0  0  0
    7.2625   -2.9542    0.0000 O   0  0  0  0  0  0  0  0  0  0  0  0
    5.1625   -1.6292    0.0000 C   0  0  0  0  0  0  0  0  0  0  0  0
    3.6875   -4.1917    0.0000 C   0  0  0  0  0  0  0  0  0  0  0  0
    6.3250   -4.9792    0.0000 C   0  0  0  0  0  0  0  0  0  0  0  0
    7.2625   -4.6042    0.0000 C   0  0  0  0  0  0  0  0  0  0  0  0
    6.2375   -0.8542    0.0000 C   0  0  0  0  0  0  0  0  0  0  0  0
    5.4125   -0.8542    0.0000 C   0  0  0  0  0  0  0  0  0  0  0  0
  2  1  1  0
  3  1  1  0
  4  1  1  0
  5  4  1  0
  6  5  1  0
  7  2  1  0
  8  3  1  0
  9 11  3  0
 10  2  2  0
 11 14  1  0
 12  8  2  0
 13  7  2  0
 14 10  1  0
  4 15  1  6
 16  3  1  0
 17 14  2  0
 18  5  1  0
 19  5  1  0
 20  8  1  0
 21 16  1  0
  6  7  1  0
 21 20  1  0
 13 17  1  0
M  END

> <chembl_id>
CHEMBL6677

> <chembl_pref_name>
None

$$$$

     RDKit          2D

 29 31  0  0  0  0  0  0  0  0999 V2000
    4.7042   -3.7542    0.0000 C   0  0  0  0  0  0  0  0  0  0  0  0
    4.0167   -3.3250    0.0000 C   0  0  0  0  0  0  0  0  0  0  0  0
    5.4292   -3.3625    0.0000 C   0  0  0  0  0  0  0  0  0  0  0  0
    4.6792   -4.5792    0.0000 C   0  0  0  0  0  0  0  0  0  0  0  0
    4.0292   -2.4917    0.0000 C   0  0  0  0  0  0  0  0  0  0  0  0
    5.4542   -2.5542    0.0000 C   0  0  0  0  0  0  0  0  0  0  0  0
    6.1292   -3.7917    0.0000 C   0  0  0  0  0  0  0  0  0  0  0  0
    3.9625   -4.9667    0.0000 C   0  0  0  0  0  0  0  0  0  0  0  0
    5.3792   -5.0042    0.0000 C   0  0  0  0  0  0  0  0  0  0  0  0
    4.6417   -6.2167    0.0000 C   0  0  0  0  0  0  0  0  0  0  0  0
    9.7167   -2.6417    0.0000 N   0  0  0  0  0  0  0  0  0  0  0  0
    6.8750   -2.5875    0.0000 C   0  0  0  0  0  0  0  0  0  0  0  0
    3.9375   -5.7875    0.0000 C   0  0  0  0  0  0  0  0  0  0  0  0
    5.3625   -5.8292    0.0000 C   0  0  0  0  0  0  0  0  0  0  0  0
    6.8667   -3.4042    0.0000 C   0  0  0  0  0  0  0  0  0  0  0  0
    6.1875   -2.1542    0.0000 C   0  0  0  0  0  0  0  0  0  0  0  0
    4.6250   -7.0542    0.0000 I   0  0  0  0  0  0  0  0  0  0  0  0
    3.2875   -3.7167    0.0000 C   0  0  0  0  0  0  0  0  0  0  0  0
    7.5917   -2.1917    0.0000 O   0  0  0  0  0  0  0  0  0  0  0  0
    8.2917   -2.6167    0.0000 C   0  0  0  0  0  0  0  0  0  0  0  0
    9.0167   -2.2167    0.0000 C   0  0  0  0  0  0  0  0  0  0  0  0
    3.3292   -2.0500    0.0000 C   0  0  0  0  0  0  0  0  0  0  0  0
    4.7542   -2.1042    0.0000 C   0  0  0  0  0  0  0  0  0  0  0  0
    9.7042   -3.4667    0.0000 C   0  0  0  0  0  0  0  0  0  0  0  0
   10.4375   -2.2417    0.0000 C   0  0  0  0  0  0  0  0  0  0  0  0
    3.2625   -4.5292    0.0000 C   0  0  0  0  0  0  0  0  0  0  0  0
    4.7875   -1.2792    0.0000 C   0  0  0  0  0  0  0  0  0  0  0  0
    3.3542   -1.2375    0.0000 C   0  0  0  0  0  0  0  0  0  0  0  0
    4.0792   -0.8417    0.0000 C   0  0  0  0  0  0  0  0  0  0  0  0
  2  1  2  0
  3  1  1  0
  4  1  1  0
  5  2  1  0
  6  3  1  0
  7  3  2  0
  8  4  2  0
  9  4  1  0
 10 14  1  0
 11 21  1  0
 12 15  2  0
 13  8  1  0
 14  9  2  0
 15  7  1  0
 16  6  2  0
 17 10  1  0
 18  2  1  0
 19 12  1  0
 20 19  1  0
 21 20  1  0
 22  5  2  0
 23  5  1  0
 24 11  1  0
 25 11  1  0
 26 18  1  0
 27 23  2  0
 28 22  1  0
 29 27  1  0
 10 13  2  0
 16 12  1  0
 28 29  2  0
M  END

> <chembl_id>
CHEMBL6730

> <chembl_pref_name>
None

$$$$

     RDKit          2D

 34 36  0  0  1  0  0  0  0  0999 V2000
   -4.8125   -0.1125    0.0000 C   0  0  0  0  0  0  0  0  0  0  0  0
   -4.1083   -0.5250    0.0000 C   0  0  0  0  0  0  0  0  0  0  0  0
   -5.5333   -0.5167    0.0000 N   0  0  0  0  0  0  0  0  0  0  0  0
   -4.8208   -1.7542    0.0000 N   0  0  0  0  0  0  0  0  0  0  0  0
    2.3125    0.7458    0.0000 N   0  0  0  0  0  0  0  0  0  0  0  0
   -4.1083   -1.3417    0.0000 C   0  0  0  0  0  0  0  0  0  0  0  0
   -5.5333   -1.3375    0.0000 C   0  0  0  0  0  0  0  0  0  0  0  0
    1.6000    1.1500    0.0000 C   0  0  0  0  0  0  0  0  0  0  0  0
    3.0250    1.1583    0.0000 C   0  0  0  0  0  0  0  0  0  0  0  0
    3.7417    0.7458    0.0000 C   0  0  0  0  0  0  0  0  0  0  0  0
   -1.2500   -0.5042    0.0000 N   0  0  0  0  0  0  0  0  0  0  0  0
   -0.5583   -1.7750    0.0000 C   0  0  0  0  0  0  0  0  0  0  0  0
    0.1417   -2.2167    0.0000 C   0  0  0  0  0  0  0  0  0  0  0  0
   -3.3958   -0.1042    0.0000 C   0  0  0  0  0  0  0  0  0  0  0  0
    0.8875    0.7333    0.0000 C   0  0  0  0  0  0  0  0  0  0  0  0
    3.0167    1.9833    0.0000 C   0  0  0  0  0  0  0  0  0  0  0  0
   -0.5375   -0.0917    0.0000 C   0  0  0  0  0  0  0  0  0  0  0  0
   -4.8083    0.7125    0.0000 O   0  0  0  0  0  0  0  0  0  0  0  0
   -1.9708   -0.0917    0.0000 C   0  0  0  0  0  0  0  0  0  0  0  0
    1.5917    1.9750    0.0000 O   0  0  0  0  0  0  0  0  0  0  0  0
   -2.6833   -0.5167    0.0000 C   0  0  0  0  0  0  0  0  0  0  0  0
    3.7417   -0.0792    0.0000 O   0  0  0  0  0  0  0  0  0  0  0  0
   -3.3958   -1.7542    0.0000 C   0  0  0  0  0  0  0  0  0  0  0  0
    0.1667    1.1458    0.0000 C   0  0  0  0  0  0  0  0  0  0  0  0
    0.8875   -0.0917    0.0000 C   0  0  0  0  0  0  0  0  0  0  0  0
   -0.5458    0.7250    0.0000 C   0  0  0  0  0  0  0  0  0  0  0  0
    0.1750   -0.5042    0.0000 C   0  0  0  0  0  0  0  0  0  0  0  0
   -1.2500   -1.3292    0.0000 C   0  0  0  0  0  0  0  0  0  0  0  0
    4.4542    1.1625    0.0000 O   0  0  0  0  0  0  0  0  0  0  0  0
   -2.6833   -1.3417    0.0000 C   0  0  0  0  0  0  0  0  0  0  0  0
   -6.2417   -1.7417    0.0000 C   0  0  0  0  0  0  0  0  0  0  0  0
    3.7292    2.3958    0.0000 C   0  0  0  0  0  0  0  0  0  0  0  0
    2.3042    2.3958    0.0000 C   0  0  0  0  0  0  0  0  0  0  0  0
    3.8167    1.7708    0.0000 C   0  0  0  0  0  0  0  0  0  0  0  0
  2  1  1  0
  3  1  2  0
  4  7  2  0
  5  8  1  0
  6  2  2  0
  7  3  1  0
  8 15  1  0
  9  5  1  0
 10  9  1  0
 11 19  1  0
 12 28  1  0
 13 12  3  0
 14  2  1  0
 15 25  2  0
  9 16  1  6
 17 11  1  0
 18  1  1  0
 19 21  1  0
 20  8  2  0
 21 14  2  0
 22 10  2  0
 23  6  1  0
 24 26  2  0
 25 27  1  0
 26 17  1  0
 27 17  2  0
 28 11  1  0
 29 10  1  0
 30 21  1  0
 31  7  1  0
 32 16  1  0
 33 16  1  0
 34 16  1  0
  4  6  1  0
 30 23  2  0
 15 24  1  0
M  END

> <chembl_id>
CHEMBL6663

> <chembl_pref_name>
None

$$$$

     RDKit          2D

 26 28  0  0  0  0  0  0  0  0999 V2000
    6.2875   -5.1750    0.0000 C   0  0  0  0  0  0  0  0  0  0  0  0
    6.2917   -6.0042    0.0000 N   0  0  0  0  0  0  0  0  0  0  0  0
    4.8625   -6.0042    0.0000 C   0  0  0  0  0  0  0  0  0  0  0  0
    5.5792   -6.4167    0.0000 C   0  0  0  0  0  0  0  0  0  0  0  0
    5.5667   -4.7667    0.0000 N   0  0  0  0  0  0  0  0  0  0  0  0
    4.8625   -5.1792    0.0000 C   0  0  0  0  0  0  0  0  0  0  0  0
    7.0000   -4.7542    0.0000 N   0  0  0  0  0  0  0  0  0  0  0  0
    4.1417   -6.4250    0.0000 C   0  0  0  0  0  0  0  0  0  0  0  0
    4.1417   -4.7667    0.0000 C   0  0  0  0  0  0  0  0  0  0  0  0
    9.1375   -3.5167    0.0000 C   0  0  0  0  0  0  0  0  0  0  0  0
    3.4292   -6.0125    0.0000 C   0  0  0  0  0  0  0  0  0  0  0  0
    3.4292   -5.1875    0.0000 C   0  0  0  0  0  0  0  0  0  0  0  0
    6.9917   -3.9292    0.0000 C   0  0  0  0  0  0  0  0  0  0  0  0
    7.7125   -5.1667    0.0000 C   0  0  0  0  0  0  0  0  0  0  0  0
    8.4250   -3.9292    0.0000 C   0  0  0  0  0  0  0  0  0  0  0  0
    9.8500   -3.9250    0.0000 O   0  0  0  0  0  0  0  0  0  0  0  0
    5.5792   -7.2417    0.0000 N   0  0  0  0  0  0  0  0  0  0  0  0
    8.4250   -4.7542    0.0000 C   0  0  0  0  0  0  0  0  0  0  0  0
    7.7042   -3.5167    0.0000 C   0  0  0  0  0  0  0  0  0  0  0  0
    9.1292   -2.6917    0.0000 N   0  0  0  0  0  0  0  0  0  0  0  0
    2.7167   -6.4250    0.0000 O   0  0  0  0  0  0  0  0  0  0  0  0
    2.7167   -4.7750    0.0000 O   0  0  0  0  0  0  0  0  0  0  0  0
    9.8500   -2.2792    0.0000 C   0  0  0  0  0  0  0  0  0  0  0  0
    2.7167   -7.2500    0.0000 C   0  0  0  0  0  0  0  0  0  0  0  0
    2.7167   -3.9500    0.0000 C   0  0  0  0  0  0  0  0  0  0  0  0
   10.5625   -2.6875    0.0000 C   0  0  0  0  0  0  0  0  0  0  0  0
  2  1  1  0
  3  6  1  0
  4  2  2  0
  5  1  2  0
  6  5  1  0
  7  1  1  0
  8  3  2  0
  9  6  2  0
 10 15  1  0
 11 12  2  0
 12  9  1  0
 13  7  1  0
 14  7  1  0
 15 18  1  0
 16 10  2  0
 17  4  1  0
 18 14  1  0
 19 13  1  0
 20 10  1  0
 21 11  1  0
 22 12  1  0
 23 20  1  0
 24 21  1  0
 25 22  1  0
 26 23  1  0
  4  3  1  0
 19 15  1  0
 11  8  1  0
M  END

> <chembl_id>
CHEMBL268627

> <chembl_pref_name>
None

$$$$

     RDKit          2D

 37 39  0  0  0  0  0  0  0  0999 V2000
    1.8667   -3.8167    0.0000 C   0  0  0  0  0  0  0  0  0  0  0  0
    1.1667   -3.3917    0.0000 C   0  0  0  0  0  0  0  0  0  0  0  0
    2.5792   -3.4125    0.0000 C   0  0  0  0  0  0  0  0  0  0  0  0
    1.8500   -4.6417    0.0000 C   0  0  0  0  0  0  0  0  0  0  0  0
    1.1750   -2.5667    0.0000 C   0  0  0  0  0  0  0  0  0  0  0  0
    2.6000   -2.6042    0.0000 C   0  0  0  0  0  0  0  0  0  0  0  0
    3.2917   -3.8417    0.0000 C   0  0  0  0  0  0  0  0  0  0  0  0
    1.1292   -5.0417    0.0000 C   0  0  0  0  0  0  0  0  0  0  0  0
    2.5542   -5.0542    0.0000 C   0  0  0  0  0  0  0  0  0  0  0  0
    1.8250   -6.2792    0.0000 C   0  0  0  0  0  0  0  0  0  0  0  0
   12.5417   -2.5750    0.0000 N   0  0  0  0  0  0  0  0  0  0  0  0
    4.0167   -2.6250    0.0000 C   0  0  0  0  0  0  0  0  0  0  0  0
    1.1167   -5.8542    0.0000 C   0  0  0  0  0  0  0  0  0  0  0  0
    2.5417   -5.8875    0.0000 C   0  0  0  0  0  0  0  0  0  0  0  0
    4.0167   -3.4417    0.0000 C   0  0  0  0  0  0  0  0  0  0  0  0
    3.3167   -2.2000    0.0000 C   0  0  0  0  0  0  0  0  0  0  0  0
    1.8167   -7.1167    0.0000 I   0  0  0  0  0  0  0  0  0  0  0  0
    0.4417   -3.7917    0.0000 C   0  0  0  0  0  0  0  0  0  0  0  0
    4.7292   -2.2250    0.0000 O   0  0  0  0  0  0  0  0  0  0  0  0
    0.4667   -2.1292    0.0000 C   0  0  0  0  0  0  0  0  0  0  0  0
    1.8917   -2.1667    0.0000 C   0  0  0  0  0  0  0  0  0  0  0  0
   11.8250   -2.1750    0.0000 C   0  0  0  0  0  0  0  0  0  0  0  0
   12.5542   -3.3917    0.0000 C   0  0  0  0  0  0  0  0  0  0  0  0
   13.2500   -2.1500    0.0000 C   0  0  0  0  0  0  0  0  0  0  0  0
    5.4375   -2.6375    0.0000 C   0  0  0  0  0  0  0  0  0  0  0  0
    0.4292   -4.6042    0.0000 C   0  0  0  0  0  0  0  0  0  0  0  0
   11.1167   -2.6000    0.0000 C   0  0  0  0  0  0  0  0  0  0  0  0
    6.1542   -2.2292    0.0000 C   0  0  0  0  0  0  0  0  0  0  0  0
   10.3917   -2.2000    0.0000 C   0  0  0  0  0  0  0  0  0  0  0  0
    6.8542   -2.6417    0.0000 C   0  0  0  0  0  0  0  0  0  0  0  0
    7.5667   -2.2292    0.0000 C   0  0  0  0  0  0  0  0  0  0  0  0
    8.2792   -2.6417    0.0000 C   0  0  0  0  0  0  0  0  0  0  0  0
    8.9875   -2.2250    0.0000 C   0  0  0  0  0  0  0  0  0  0  0  0
    9.6917   -2.6250    0.0000 C   0  0  0  0  0  0  0  0  0  0  0  0
    1.9125   -1.3417    0.0000 C   0  0  0  0  0  0  0  0  0  0  0  0
    0.4792   -1.3167    0.0000 C   0  0  0  0  0  0  0  0  0  0  0  0
    1.2042   -0.9167    0.0000 C   0  0  0  0  0  0  0  0  0  0  0  0
  2  1  2  0
  3  1  1  0
  4  1  1  0
  5  2  1  0
  6  3  1  0
  7  3  2  0
  8  4  2  0
  9  4  1  0
 10 14  1  0
 11 22  1  0
 12 15  2  0
 13  8  1  0
 14  9  2  0
 15  7  1  0
 16  6  2  0
 17 10  1  0
 18  2  1  0
 19 12  1  0
 20  5  2  0
 21  5  1  0
 22 27  1  0
 23 11  1  0
 24 11  1  0
 25 19  1  0
 26 18  1  0
 27 29  1  0
 28 25  1  0
 29 34  1  0
 30 28  1  0
 31 30  1  0
 32 31  1  0
 33 32  1  0
 34 33  1  0
 35 21  2  0
 36 20  1  0
 37 35  1  0
 10 13  2  0
 12 16  1  0
 37 36  2  0
M  END

> <chembl_id>
CHEMBL6596

> <chembl_pref_name>
None

$$$$

     RDKit          2D

 25 26  0  0  1  0  0  0  0  0999 V2000
    5.3792   -3.4167    0.0000 C   0  0  0  0  0  0  0  0  0  0  0  0
    4.6667   -3.8375    0.0000 C   0  0  0  0  0  0  0  0  0  0  0  0
    6.0917   -4.6667    0.0000 C   0  0  0  0  0  0  0  0  0  0  0  0
    6.0917   -3.8375    0.0000 C   0  0  0  0  0  0  0  0  0  0  0  0
    6.0417   -2.1125    0.0000 C   0  0  0  0  0  0  0  0  0  0  0  0
    5.3792   -5.0792    0.0000 O   0  0  0  0  0  0  0  0  0  0  0  0
    6.8292   -2.3667    0.0000 N   0  0  0  0  0  0  0  0  0  0  0  0
    4.6667   -4.6542    0.0000 C   0  0  0  0  0  0  0  0  0  0  0  0
    7.6292   -2.5792    0.0000 C   0  0  0  0  0  0  0  0  0  0  0  0
    5.3792   -2.5917    0.0000 N   0  0  0  0  0  0  0  0  0  0  0  0
    8.4167   -2.7917    0.0000 N   0  0  0  0  0  0  0  0  0  0  0  0
    1.8042   -3.0125    0.0000 N   0  0  0  0  0  0  0  0  0  0  0  0
    5.7917   -1.3292    0.0000 N   0  0  0  0  0  0  0  0  0  0  0  0
    2.5167   -3.4250    0.0000 C   0  0  0  0  0  0  0  0  0  0  0  0
    3.9542   -3.4250    0.0000 C   0  0  0  0  0  0  0  0  0  0  0  0
    3.9542   -5.0792    0.0000 C   0  0  0  0  0  0  0  0  0  0  0  0
    4.9792   -1.1542    0.0000 C   0  0  0  0  0  0  0  0  0  0  0  0
    3.2417   -3.8375    0.0000 C   0  0  0  0  0  0  0  0  0  0  0  0
    6.8167   -3.4292    0.0000 O   0  0  0  0  0  0  0  0  0  0  0  0
    3.2417   -4.6667    0.0000 C   0  0  0  0  0  0  0  0  0  0  0  0
    5.8792   -5.4625    0.0000 C   0  0  0  0  0  0  0  0  0  0  0  0
    6.8042   -5.0792    0.0000 C   0  0  0  0  0  0  0  0  0  0  0  0
    4.7292   -0.3750    0.0000 C   0  0  0  0  0  0  0  0  0  0  0  0
    4.4292   -1.7667    0.0000 C   0  0  0  0  0  0  0  0  0  0  0  0
    4.1792   -0.9417    0.0000 C   0  0  0  0  0  0  0  0  0  0  0  0
  2  1  1  0
  3  4  1  0
  4  1  1  0
  5 10  1  0
  6  3  1  0
  7  5  1  0
  8  2  1  0
  9  7  1  0
 10  1  1  0
 11  9  3  0
 12 14  3  0
 13  5  2  0
 14 18  1  0
 15  2  2  0
 16  8  2  0
 17 13  1  0
 18 15  1  0
  4 19  1  6
 20 18  2  0
 21  3  1  0
 22  3  1  0
 23 17  1  0
 24 17  1  0
 25 17  1  0
  6  8  1  0
 20 16  1  0
M  END

> <chembl_id>
CHEMBL6527

> <chembl_pref_name>
None

$$$$

     RDKit          2D

 27 29  0  0  0  0  0  0  0  0999 V2000
    4.3250   -3.9667    0.0000 S   0  0  0  0  0  0  0  0  0  0  0  0
    5.0375   -4.3792    0.0000 N   0  0  0  0  0  0  0  0  0  0  0  0
    5.7500   -3.9542    0.0000 C   0  0  0  0  0  0  0  0  0  0  0  0
    4.3250   -3.1292    0.0000 C   0  0  0  0  0  0  0  0  0  0  0  0
    7.1875   -3.9417    0.0000 N   0  0  0  0  0  0  0  0  0  0  0  0
    6.4792   -4.3625    0.0000 C   0  0  0  0  0  0  0  0  0  0  0  0
    3.6042   -2.7167    0.0000 C   0  0  0  0  0  0  0  0  0  0  0  0
    5.7417   -3.1292    0.0000 N   0  0  0  0  0  0  0  0  0  0  0  0
    3.6042   -1.8875    0.0000 C   0  0  0  0  0  0  0  0  0  0  0  0
    2.8792   -1.4667    0.0000 C   0  0  0  0  0  0  0  0  0  0  0  0
    3.4917   -3.9542    0.0000 O   0  0  0  0  0  0  0  0  0  0  0  0
    4.3167   -4.7917    0.0000 O   0  0  0  0  0  0  0  0  0  0  0  0
    7.1875   -3.1167    0.0000 C   0  0  0  0  0  0  0  0  0  0  0  0
    2.8792   -0.6417    0.0000 N   0  0  0  0  0  0  0  0  0  0  0  0
    6.4625   -2.7000    0.0000 C   0  0  0  0  0  0  0  0  0  0  0  0
    6.4792   -5.1917    0.0000 O   0  0  0  0  0  0  0  0  0  0  0  0
    7.8917   -2.7000    0.0000 Br  0  0  0  0  0  0  0  0  0  0  0  0
    5.0417   -2.7167    0.0000 C   0  0  0  0  0  0  0  0  0  0  0  0
    4.3167   -1.4667    0.0000 C   0  0  0  0  0  0  0  0  0  0  0  0
    2.8792   -3.1292    0.0000 C   0  0  0  0  0  0  0  0  0  0  0  0
    2.1667   -1.8875    0.0000 C   0  0  0  0  0  0  0  0  0  0  0  0
    2.1667   -2.7167    0.0000 C   0  0  0  0  0  0  0  0  0  0  0  0
    5.0417   -1.8875    0.0000 C   0  0  0  0  0  0  0  0  0  0  0  0
    3.6042   -0.2167    0.0000 C   0  0  0  0  0  0  0  0  0  0  0  0
    2.1625   -0.2167    0.0000 C   0  0  0  0  0  0  0  0  0  0  0  0
    7.2042   -5.6042    0.0000 C   0  0  0  0  0  0  0  0  0  0  0  0
    4.3250   -0.6417    0.0000 C   0  0  0  0  0  0  0  0  0  0  0  0
  2  1  1  0
  3  2  1  0
  4  1  1  0
  5  6  2  0
  6  3  1  0
  7  4  1  0
  8  3  2  0
  9  7  2  0
 10  9  1  0
 11  1  2  0
 12  1  2  0
 13 15  2  0
 14 10  1  0
 15  8  1  0
 16  6  1  0
 17 13  1  0
 18  4  2  0
 19 23  2  0
 20  7  1  0
 21 22  1  0
 22 20  2  0
 23 18  1  0
 24 14  1  0
 25 14  1  0
 26 16  1  0
 27 24  1  0
 19  9  1  0
 21 10  2  0
 13  5  1  0
M  END

> <chembl_id>
CHEMBL6785

> <chembl_pref_name>
None

$$$$

     RDKit          2D

 31 33  0  0  0  0  0  0  0  0999 V2000
    4.0042   -3.7500    0.0000 C   0  0  0  0  0  0  0  0  0  0  0  0
    3.3125   -3.3167    0.0000 C   0  0  0  0  0  0  0  0  0  0  0  0
    4.7292   -3.3542    0.0000 C   0  0  0  0  0  0  0  0  0  0  0  0
    3.9792   -4.5750    0.0000 C   0  0  0  0  0  0  0  0  0  0  0  0
    3.3292   -2.4917    0.0000 C   0  0  0  0  0  0  0  0  0  0  0  0
    4.7500   -2.5500    0.0000 C   0  0  0  0  0  0  0  0  0  0  0  0
    5.4292   -3.7917    0.0000 C   0  0  0  0  0  0  0  0  0  0  0  0
    3.2542   -4.9667    0.0000 C   0  0  0  0  0  0  0  0  0  0  0  0
    4.6792   -5.0042    0.0000 C   0  0  0  0  0  0  0  0  0  0  0  0
    3.9375   -6.2167    0.0000 C   0  0  0  0  0  0  0  0  0  0  0  0
   10.4292   -2.6500    0.0000 N   0  0  0  0  0  0  0  0  0  0  0  0
    6.1667   -2.5792    0.0000 C   0  0  0  0  0  0  0  0  0  0  0  0
    3.2375   -5.7875    0.0000 C   0  0  0  0  0  0  0  0  0  0  0  0
    4.6625   -5.8292    0.0000 C   0  0  0  0  0  0  0  0  0  0  0  0
    6.1625   -3.4000    0.0000 C   0  0  0  0  0  0  0  0  0  0  0  0
    5.4792   -2.1542    0.0000 C   0  0  0  0  0  0  0  0  0  0  0  0
    3.9167   -7.0542    0.0000 I   0  0  0  0  0  0  0  0  0  0  0  0
    2.5792   -3.7125    0.0000 C   0  0  0  0  0  0  0  0  0  0  0  0
    6.8917   -2.1917    0.0000 O   0  0  0  0  0  0  0  0  0  0  0  0
    2.6250   -2.0500    0.0000 C   0  0  0  0  0  0  0  0  0  0  0  0
    4.0542   -2.1042    0.0000 C   0  0  0  0  0  0  0  0  0  0  0  0
    9.7292   -2.2292    0.0000 C   0  0  0  0  0  0  0  0  0  0  0  0
   10.4250   -3.4750    0.0000 C   0  0  0  0  0  0  0  0  0  0  0  0
   11.1417   -2.2417    0.0000 C   0  0  0  0  0  0  0  0  0  0  0  0
    7.5917   -2.6125    0.0000 C   0  0  0  0  0  0  0  0  0  0  0  0
    2.5542   -4.5250    0.0000 C   0  0  0  0  0  0  0  0  0  0  0  0
    9.0125   -2.6292    0.0000 C   0  0  0  0  0  0  0  0  0  0  0  0
    8.3125   -2.2125    0.0000 C   0  0  0  0  0  0  0  0  0  0  0  0
    4.0792   -1.2750    0.0000 C   0  0  0  0  0  0  0  0  0  0  0  0
    2.6500   -1.2375    0.0000 C   0  0  0  0  0  0  0  0  0  0  0  0
    3.3792   -0.8417    0.0000 C   0  0  0  0  0  0  0  0  0  0  0  0
  2  1  2  0
  3  1  1  0
  4  1  1  0
  5  2  1  0
  6  3  1  0
  7  3  2  0
  8  4  2  0
  9  4  1  0
 10 14  1  0
 11 22  1  0
 12 15  2  0
 13  8  1  0
 14  9  2  0
 15  7  1  0
 16  6  2  0
 17 10  1  0
 18  2  1  0
 19 12  1  0
 20  5  2  0
 21  5  1  0
 22 27  1  0
 23 11  1  0
 24 11  1  0
 25 19  1  0
 26 18  1  0
 27 28  1  0
 28 25  1  0
 29 21  2  0
 30 20  1  0
 31 29  1  0
 10 13  2  0
 12 16  1  0
 30 31  2  0
M  END

> <chembl_id>
CHEMBL267426

> <chembl_pref_name>
None

$$$$

     RDKit          2D

 19 21  0  0  0  0  0  0  0  0999 V2000
    5.7042   -6.8750    0.0000 C   0  0  0  0  0  0  0  0  0  0  0  0
    6.4167   -6.4542    0.0000 C   0  0  0  0  0  0  0  0  0  0  0  0
    7.1375   -7.7042    0.0000 N   0  0  0  0  0  0  0  0  0  0  0  0
    5.7042   -7.7000    0.0000 C   0  0  0  0  0  0  0  0  0  0  0  0
    7.1375   -6.8750    0.0000 C   0  0  0  0  0  0  0  0  0  0  0  0
    6.4167   -8.1167    0.0000 C   0  0  0  0  0  0  0  0  0  0  0  0
    6.4167   -5.6375    0.0000 C   0  0  0  0  0  0  0  0  0  0  0  0
    7.1292   -9.3542    0.0000 N   0  0  0  0  0  0  0  0  0  0  0  0
    4.9917   -6.4625    0.0000 C   0  0  0  0  0  0  0  0  0  0  0  0
    4.9917   -8.1167    0.0000 C   0  0  0  0  0  0  0  0  0  0  0  0
    6.4167   -8.9375    0.0000 C   0  0  0  0  0  0  0  0  0  0  0  0
    7.1375   -5.2250    0.0000 C   0  0  0  0  0  0  0  0  0  0  0  0
    5.7042   -5.2292    0.0000 C   0  0  0  0  0  0  0  0  0  0  0  0
    7.1250  -10.1792    0.0000 C   0  0  0  0  0  0  0  0  0  0  0  0
    4.2792   -6.8792    0.0000 C   0  0  0  0  0  0  0  0  0  0  0  0
    4.2792   -7.7042    0.0000 C   0  0  0  0  0  0  0  0  0  0  0  0
    7.1375   -4.4000    0.0000 C   0  0  0  0  0  0  0  0  0  0  0  0
    5.7042   -4.4042    0.0000 C   0  0  0  0  0  0  0  0  0  0  0  0
    6.4250   -3.9875    0.0000 C   0  0  0  0  0  0  0  0  0  0  0  0
  2  1  1  0
  3  6  1  0
  4  1  1  0
  5  2  1  0
  6  4  1  0
  7  2  1  0
  8 11  1  0
  9  1  2  0
 10  4  2  0
 11  6  1  0
 12  7  2  0
 13  7  1  0
 14  8  1  0
 15  9  1  0
 16 15  2  0
 17 12  1  0
 18 13  2  0
 19 18  1  0
  3  5  1  0
 10 16  1  0
 17 19  2  0
M  END

> <chembl_id>
CHEMBL6649

> <chembl_pref_name>
None

$$$$

     RDKit          2D

 35 37  0  0  1  0  0  0  0  0999 V2000
   -3.7208   -2.5042    0.0000 C   0  0  0  0  0  0  0  0  0  0  0  0
   -3.0125   -2.9167    0.0000 C   0  0  0  0  0  0  0  0  0  0  0  0
   -4.4333   -2.9042    0.0000 N   0  0  0  0  0  0  0  0  0  0  0  0
   -3.7333   -4.1417    0.0000 N   0  0  0  0  0  0  0  0  0  0  0  0
   -3.0208   -3.7375    0.0000 C   0  0  0  0  0  0  0  0  0  0  0  0
   -4.4375   -3.7292    0.0000 C   0  0  0  0  0  0  0  0  0  0  0  0
    2.6917   -1.2417    0.0000 C   0  0  0  0  0  0  0  0  0  0  0  0
    3.4042   -1.6500    0.0000 N   0  0  0  0  0  0  0  0  0  0  0  0
    4.8292   -1.6417    0.0000 C   0  0  0  0  0  0  0  0  0  0  0  0
   -0.1583   -2.9000    0.0000 N   0  0  0  0  0  0  0  0  0  0  0  0
    0.5375   -4.1667    0.0000 C   0  0  0  0  0  0  0  0  0  0  0  0
    4.1167   -1.2375    0.0000 C   0  0  0  0  0  0  0  0  0  0  0  0
    1.2417   -4.6125    0.0000 C   0  0  0  0  0  0  0  0  0  0  0  0
   -2.3083   -2.4917    0.0000 C   0  0  0  0  0  0  0  0  0  0  0  0
    1.9792   -1.6542    0.0000 C   0  0  0  0  0  0  0  0  0  0  0  0
    4.8167    0.8333    0.0000 C   0  0  0  0  0  0  0  0  0  0  0  0
    0.5542   -2.4875    0.0000 C   0  0  0  0  0  0  0  0  0  0  0  0
   -3.7125   -1.6792    0.0000 O   0  0  0  0  0  0  0  0  0  0  0  0
   -0.8750   -2.4917    0.0000 C   0  0  0  0  0  0  0  0  0  0  0  0
    2.6875   -0.4167    0.0000 O   0  0  0  0  0  0  0  0  0  0  0  0
   -1.5875   -2.9042    0.0000 C   0  0  0  0  0  0  0  0  0  0  0  0
    4.8375   -2.4667    0.0000 O   0  0  0  0  0  0  0  0  0  0  0  0
   -2.3083   -4.1500    0.0000 C   0  0  0  0  0  0  0  0  0  0  0  0
    4.1042    1.2375    0.0000 O   0  0  0  0  0  0  0  0  0  0  0  0
    1.9792   -2.4792    0.0000 C   0  0  0  0  0  0  0  0  0  0  0  0
    1.2542   -1.2500    0.0000 C   0  0  0  0  0  0  0  0  0  0  0  0
    1.2667   -2.9000    0.0000 C   0  0  0  0  0  0  0  0  0  0  0  0
    0.5417   -1.6667    0.0000 C   0  0  0  0  0  0  0  0  0  0  0  0
    4.1125   -0.4125    0.0000 C   0  0  0  0  0  0  0  0  0  0  0  0
    4.8250    0.0083    0.0000 C   0  0  0  0  0  0  0  0  0  0  0  0
    5.5292    1.2458    0.0000 N   0  0  0  0  0  0  0  0  0  0  0  0
   -0.1583   -3.7250    0.0000 C   0  0  0  0  0  0  0  0  0  0  0  0
    5.5417   -1.2292    0.0000 O   0  0  0  0  0  0  0  0  0  0  0  0
   -1.5875   -3.7375    0.0000 C   0  0  0  0  0  0  0  0  0  0  0  0
   -5.1583   -4.1292    0.0000 C   0  0  0  0  0  0  0  0  0  0  0  0
  2  1  1  0
  3  1  2  0
  4  6  2  0
  5  2  2  0
  6  3  1  0
  7 15  1  0
  8  7  1  0
  9 12  1  0
 10 19  1  0
 11 32  1  0
 12  8  1  0
 13 11  3  0
 14  2  1  0
 15 26  1  0
 16 30  1  0
 17 10  1  0
 18  1  1  0
 19 21  1  0
 20  7  2  0
 21 14  2  0
 22  9  2  0
 23  5  1  0
 24 16  2  0
 25 27  1  0
 26 28  2  0
 27 17  2  0
 28 17  1  0
 12 29  1  6
 30 29  1  0
 31 16  1  0
 32 10  1  0
 33  9  1  0
 34 21  1  0
 35  6  1  0
  4  5  1  0
 34 23  2  0
 15 25  2  0
M  END

> <chembl_id>
CHEMBL266509

> <chembl_pref_name>
None

$$$$

     RDKit          2D

 35 37  0  0  0  0  0  0  0  0999 V2000
    2.5792   -3.7875    0.0000 C   0  0  0  0  0  0  0  0  0  0  0  0
    1.8875   -3.3667    0.0000 C   0  0  0  0  0  0  0  0  0  0  0  0
    3.3000   -3.3917    0.0000 C   0  0  0  0  0  0  0  0  0  0  0  0
    2.5625   -4.6125    0.0000 C   0  0  0  0  0  0  0  0  0  0  0  0
    1.9000   -2.5375    0.0000 C   0  0  0  0  0  0  0  0  0  0  0  0
    3.3167   -2.5792    0.0000 C   0  0  0  0  0  0  0  0  0  0  0  0
    4.0042   -3.8167    0.0000 C   0  0  0  0  0  0  0  0  0  0  0  0
    1.8417   -5.0125    0.0000 C   0  0  0  0  0  0  0  0  0  0  0  0
    3.2667   -5.0375    0.0000 C   0  0  0  0  0  0  0  0  0  0  0  0
    2.5375   -6.2542    0.0000 C   0  0  0  0  0  0  0  0  0  0  0  0
   11.8417   -2.6042    0.0000 N   0  0  0  0  0  0  0  0  0  0  0  0
    4.7417   -2.6042    0.0000 C   0  0  0  0  0  0  0  0  0  0  0  0
    1.8292   -5.8292    0.0000 C   0  0  0  0  0  0  0  0  0  0  0  0
    3.2542   -5.8625    0.0000 C   0  0  0  0  0  0  0  0  0  0  0  0
    4.7375   -3.4167    0.0000 C   0  0  0  0  0  0  0  0  0  0  0  0
    4.0417   -2.1792    0.0000 C   0  0  0  0  0  0  0  0  0  0  0  0
    2.5250   -7.0917    0.0000 I   0  0  0  0  0  0  0  0  0  0  0  0
    1.1542   -3.7625    0.0000 C   0  0  0  0  0  0  0  0  0  0  0  0
    5.4542   -2.2042    0.0000 O   0  0  0  0  0  0  0  0  0  0  0  0
    1.1875   -2.0917    0.0000 C   0  0  0  0  0  0  0  0  0  0  0  0
    2.6167   -2.1417    0.0000 C   0  0  0  0  0  0  0  0  0  0  0  0
   11.1250   -2.2042    0.0000 C   0  0  0  0  0  0  0  0  0  0  0  0
   11.8500   -3.4292    0.0000 C   0  0  0  0  0  0  0  0  0  0  0  0
   12.5500   -2.1875    0.0000 C   0  0  0  0  0  0  0  0  0  0  0  0
    6.1542   -2.6250    0.0000 C   0  0  0  0  0  0  0  0  0  0  0  0
    1.1417   -4.5750    0.0000 C   0  0  0  0  0  0  0  0  0  0  0  0
   10.4167   -2.6250    0.0000 C   0  0  0  0  0  0  0  0  0  0  0  0
    6.8792   -2.2167    0.0000 C   0  0  0  0  0  0  0  0  0  0  0  0
    8.2917   -2.2292    0.0000 C   0  0  0  0  0  0  0  0  0  0  0  0
    9.0000   -2.6375    0.0000 C   0  0  0  0  0  0  0  0  0  0  0  0
    9.7125   -2.2250    0.0000 C   0  0  0  0  0  0  0  0  0  0  0  0
    7.5792   -2.6292    0.0000 C   0  0  0  0  0  0  0  0  0  0  0  0
    2.6375   -1.3167    0.0000 C   0  0  0  0  0  0  0  0  0  0  0  0
    1.2042   -1.2792    0.0000 C   0  0  0  0  0  0  0  0  0  0  0  0
    1.9292   -0.8875    0.0000 C   0  0  0  0  0  0  0  0  0  0  0  0
  2  1  2  0
  3  1  1  0
  4  1  1  0
  5  2  1  0
  6  3  1  0
  7  3  2  0
  8  4  2  0
  9  4  1  0
 10 14  1  0
 11 22  1  0
 12 15  2  0
 13  8  1  0
 14  9  2  0
 15  7  1  0
 16  6  2  0
 17 10  1  0
 18  2  1  0
 19 12  1  0
 20  5  2  0
 21  5  1  0
 22 27  1  0
 23 11  1  0
 24 11  1  0
 25 19  1  0
 26 18  1  0
 27 31  1  0
 28 25  1  0
 29 32  1  0
 30 29  1  0
 31 30  1  0
 32 28  1  0
 33 21  2  0
 34 20  1  0
 35 33  1  0
 10 13  2  0
 12 16  1  0
 35 34  2  0
M  END

> <chembl_id>
CHEMBL6718

> <chembl_pref_name>
None

$$$$

     RDKit          2D

 26 28  0  0  0  0  0  0  0  0999 V2000
    4.3167   -3.9750    0.0000 S   0  0  0  0  0  0  0  0  0  0  0  0
    5.0417   -4.3917    0.0000 N   0  0  0  0  0  0  0  0  0  0  0  0
    5.7542   -3.9625    0.0000 C   0  0  0  0  0  0  0  0  0  0  0  0
    4.3167   -3.1417    0.0000 C   0  0  0  0  0  0  0  0  0  0  0  0
    7.1917   -3.9417    0.0000 N   0  0  0  0  0  0  0  0  0  0  0  0
    6.4792   -4.3792    0.0000 C   0  0  0  0  0  0  0  0  0  0  0  0
    5.7417   -3.1292    0.0000 N   0  0  0  0  0  0  0  0  0  0  0  0
    3.6042   -2.7292    0.0000 C   0  0  0  0  0  0  0  0  0  0  0  0
    3.6042   -1.9042    0.0000 C   0  0  0  0  0  0  0  0  0  0  0  0
    3.4917   -3.9625    0.0000 O   0  0  0  0  0  0  0  0  0  0  0  0
    4.3167   -4.8042    0.0000 O   0  0  0  0  0  0  0  0  0  0  0  0
    7.1917   -3.1292    0.0000 C   0  0  0  0  0  0  0  0  0  0  0  0
    2.8875   -1.4875    0.0000 C   0  0  0  0  0  0  0  0  0  0  0  0
    6.4667   -2.7167    0.0000 C   0  0  0  0  0  0  0  0  0  0  0  0
    2.8875   -0.6542    0.0000 N   0  0  0  0  0  0  0  0  0  0  0  0
    6.4875   -5.2042    0.0000 O   0  0  0  0  0  0  0  0  0  0  0  0
    7.9042   -2.7125    0.0000 Br  0  0  0  0  0  0  0  0  0  0  0  0
    5.0417   -2.7292    0.0000 C   0  0  0  0  0  0  0  0  0  0  0  0
    2.8875   -3.1500    0.0000 C   0  0  0  0  0  0  0  0  0  0  0  0
    4.3167   -1.4792    0.0000 C   0  0  0  0  0  0  0  0  0  0  0  0
    5.0417   -1.9000    0.0000 C   0  0  0  0  0  0  0  0  0  0  0  0
    2.1750   -2.7292    0.0000 C   0  0  0  0  0  0  0  0  0  0  0  0
    2.1750   -1.9042    0.0000 C   0  0  0  0  0  0  0  0  0  0  0  0
    3.6042   -0.2375    0.0000 C   0  0  0  0  0  0  0  0  0  0  0  0
    7.2042   -5.6167    0.0000 C   0  0  0  0  0  0  0  0  0  0  0  0
    4.3167   -0.6542    0.0000 C   0  0  0  0  0  0  0  0  0  0  0  0
  2  1  1  0
  3  2  1  0
  4  1  1  0
  5  6  2  0
  6  3  1  0
  7  3  2  0
  8  4  1  0
  9  8  2  0
 10  1  2  0
 11  1  2  0
 12 14  2  0
 13  9  1  0
 14  7  1  0
 15 13  1  0
 16  6  1  0
 17 12  1  0
 18  4  2  0
 19  8  1  0
 20 21  2  0
 21 18  1  0
 22 19  2  0
 23 22  1  0
 24 15  1  0
 25 16  1  0
 26 24  1  0
 20  9  1  0
 23 13  2  0
 12  5  1  0
M  END

> <chembl_id>
CHEMBL263079

> <chembl_pref_name>
None

$$$$

     RDKit          2D

 20 23  0  0  0  0  0  0  0  0999 V2000
    2.8875   -1.1042    0.0000 N   0  0  0  0  0  0  0  0  0  0  0  0
    2.1042   -1.1042    0.0000 C   0  0  0  0  0  0  0  0  0  0  0  0
    3.3417   -1.5292    0.0000 C   0  0  0  0  0  0  0  0  0  0  0  0
    2.0792    0.3083    0.0000 N   0  0  0  0  0  0  0  0  0  0  0  0
    1.6667   -1.5167    0.0000 C   0  0  0  0  0  0  0  0  0  0  0  0
    3.3292   -2.3250    0.0000 C   0  0  0  0  0  0  0  0  0  0  0  0
    1.6542   -2.3792    0.0000 C   0  0  0  0  0  0  0  0  0  0  0  0
    3.3000   -0.4042    0.0000 C   0  0  0  0  0  0  0  0  0  0  0  0
    1.6792   -0.4042    0.0000 C   0  0  0  0  0  0  0  0  0  0  0  0
    2.5250   -2.8500    0.0000 C   0  0  0  0  0  0  0  0  0  0  0  0
    2.8917    0.3083    0.0000 C   0  0  0  0  0  0  0  0  0  0  0  0
    1.5667    0.9583    0.0000 C   0  0  0  0  0  0  0  0  0  0  0  0
    4.0417   -1.0875    0.0000 C   0  0  0  0  0  0  0  0  0  0  0  0
    0.9292   -1.0542    0.0000 C   0  0  0  0  0  0  0  0  0  0  0  0
    0.9667   -2.8292    0.0000 C   0  0  0  0  0  0  0  0  0  0  0  0
    4.0750   -2.8000    0.0000 C   0  0  0  0  0  0  0  0  0  0  0  0
    0.2250   -1.5167    0.0000 C   0  0  0  0  0  0  0  0  0  0  0  0
    4.7542   -1.4875    0.0000 C   0  0  0  0  0  0  0  0  0  0  0  0
    4.7542   -2.3542    0.0000 C   0  0  0  0  0  0  0  0  0  0  0  0
    0.2250   -2.3625    0.0000 C   0  0  0  0  0  0  0  0  0  0  0  0
  2  1  1  0
  3  1  1  0
  4 11  1  0
  5  2  1  0
  6  3  2  0
  7  5  2  0
  8  1  1  0
  9  2  1  0
 10  6  1  0
 11  8  1  0
 12  4  1  0
 13  3  1  0
 14  5  1  0
 15  7  1  0
 16  6  1  0
 17 14  2  0
 18 13  2  0
 19 18  1  0
 20 17  1  0
  9  4  1  0
  7 10  1  0
 16 19  2  0
 15 20  2  0
M  END

> <chembl_id>
CHEMBL6437

> <chembl_pref_name>
MIANSERIN

$$$$

     RDKit          2D

 34 37  0  0  0  0  0  0  0  0999 V2000
   11.9500   -6.7292    0.0000 N   0  0  0  0  0  0  0  0  0  0  0  0
    2.1417   -7.5500    0.0000 C   0  0  0  0  0  0  0  0  0  0  0  0
   11.9417   -7.4542    0.0000 C   0  0  0  0  0  0  0  0  0  0  0  0
   10.7042   -6.7292    0.0000 C   0  0  0  0  0  0  0  0  0  0  0  0
   11.3292   -6.3667    0.0000 C   0  0  0  0  0  0  0  0  0  0  0  0
    2.1292   -8.3750    0.0000 C   0  0  0  0  0  0  0  0  0  0  0  0
   10.7042   -7.4500    0.0000 S   0  0  0  0  0  0  0  0  0  0  0  0
    1.4250   -7.1375    0.0000 C   0  0  0  0  0  0  0  0  0  0  0  0
    0.7125   -8.3792    0.0000 C   0  0  0  0  0  0  0  0  0  0  0  0
    1.4250   -8.7917    0.0000 C   0  0  0  0  0  0  0  0  0  0  0  0
    0.7125   -7.5500    0.0000 C   0  0  0  0  0  0  0  0  0  0  0  0
    2.8542   -7.1292    0.0000 O   0  0  0  0  0  0  0  0  0  0  0  0
    9.9917   -6.3167    0.0000 C   0  0  0  0  0  0  0  0  0  0  0  0
    2.8542   -8.7917    0.0000 C   0  0  0  0  0  0  0  0  0  0  0  0
    3.5667   -7.5500    0.0000 C   0  0  0  0  0  0  0  0  0  0  0  0
   12.5292   -8.0417    0.0000 O   0  0  0  0  0  0  0  0  0  0  0  0
   11.3250   -5.6417    0.0000 O   0  0  0  0  0  0  0  0  0  0  0  0
    9.2792   -6.7292    0.0000 C   0  0  0  0  0  0  0  0  0  0  0  0
    3.5667   -8.3792    0.0000 C   0  0  0  0  0  0  0  0  0  0  0  0
   -0.0083   -8.7875    0.0000 O   0  0  0  0  0  0  0  0  0  0  0  0
    7.8542   -7.5500    0.0000 C   0  0  0  0  0  0  0  0  0  0  0  0
    4.9917   -7.5500    0.0000 N   0  0  0  0  0  0  0  0  0  0  0  0
    9.2792   -7.5542    0.0000 C   0  0  0  0  0  0  0  0  0  0  0  0
    8.5625   -6.3167    0.0000 C   0  0  0  0  0  0  0  0  0  0  0  0
    1.4167   -6.3125    0.0000 C   0  0  0  0  0  0  0  0  0  0  0  0
    1.4292   -9.6167    0.0000 C   0  0  0  0  0  0  0  0  0  0  0  0
    0.0000   -7.1417    0.0000 C   0  0  0  0  0  0  0  0  0  0  0  0
    8.5667   -7.9667    0.0000 C   0  0  0  0  0  0  0  0  0  0  0  0
    7.8500   -6.7292    0.0000 C   0  0  0  0  0  0  0  0  0  0  0  0
    4.2792   -7.9625    0.0000 C   0  0  0  0  0  0  0  0  0  0  0  0
    7.1375   -7.9625    0.0000 O   0  0  0  0  0  0  0  0  0  0  0  0
    4.2875   -7.1417    0.0000 C   0  0  0  0  0  0  0  0  0  0  0  0
    5.7042   -7.9625    0.0000 C   0  0  0  0  0  0  0  0  0  0  0  0
    6.4250   -7.5500    0.0000 C   0  0  0  0  0  0  0  0  0  0  0  0
  2 12  1  0
  3  1  1  0
  4  5  1  0
  5  1  1  0
  6 14  1  0
  7  3  1  0
  8  2  2  0
  9 10  1  0
 10  6  2  0
 11  8  1  0
 12 15  1  0
 13  4  2  0
 14 19  1  0
 15 30  1  0
 16  3  2  0
 17  5  2  0
 18 13  1  0
 19 15  1  0
 20  9  1  0
 21 29  1  0
 22 33  1  0
 23 18  2  0
 24 18  1  0
 25  8  1  0
 26 10  1  0
 27 11  1  0
 28 23  1  0
 29 24  2  0
 30 22  1  0
 31 21  1  0
 32 15  1  0
 33 34  1  0
 34 31  1  0
  7  4  1  0
 28 21  2  0
  6  2  1  0
  9 11  2  0
M  END

> <chembl_id>
CHEMBL6511

> <chembl_pref_name>
None

$$$$

     RDKit          2D

 21 23  0  0  0  0  0  0  0  0999 V2000
    7.8292   -5.4042    0.0000 N   0  0  0  0  0  0  0  0  0  0  0  0
    7.1167   -5.8167    0.0000 C   0  0  0  0  0  0  0  0  0  0  0  0
    6.4000   -5.4042    0.0000 C   0  0  0  0  0  0  0  0  0  0  0  0
    6.4042   -4.5792    0.0000 C   0  0  0  0  0  0  0  0  0  0  0  0
    7.1167   -4.1625    0.0000 C   0  0  0  0  0  0  0  0  0  0  0  0
    7.8292   -4.5792    0.0000 C   0  0  0  0  0  0  0  0  0  0  0  0
    7.1125   -6.6417    0.0000 C   0  0  0  0  0  0  0  0  0  0  0  0
    7.1167   -3.3417    0.0000 C   0  0  0  0  0  0  0  0  0  0  0  0
    7.8250   -7.0542    0.0000 N   0  0  0  0  0  0  0  0  0  0  0  0
    8.6542   -5.4042    0.0000 C   0  0  0  0  0  0  0  0  0  0  0  0
    5.6875   -5.8167    0.0000 C   0  0  0  0  0  0  0  0  0  0  0  0
    5.6875   -4.1667    0.0000 C   0  0  0  0  0  0  0  0  0  0  0  0
    6.4042   -2.9292    0.0000 C   0  0  0  0  0  0  0  0  0  0  0  0
    7.8292   -2.9292    0.0000 C   0  0  0  0  0  0  0  0  0  0  0  0
    7.8167   -7.8792    0.0000 C   0  0  0  0  0  0  0  0  0  0  0  0
    8.5417   -6.6542    0.0000 C   0  0  0  0  0  0  0  0  0  0  0  0
    4.9750   -4.5792    0.0000 C   0  0  0  0  0  0  0  0  0  0  0  0
    4.9750   -5.4042    0.0000 C   0  0  0  0  0  0  0  0  0  0  0  0
    7.8292   -2.1042    0.0000 C   0  0  0  0  0  0  0  0  0  0  0  0
    6.4042   -2.1042    0.0000 C   0  0  0  0  0  0  0  0  0  0  0  0
    7.1167   -1.6917    0.0000 C   0  0  0  0  0  0  0  0  0  0  0  0
  2  1  1  0
  3  2  1  0
  4  5  1  0
  5  6  1  0
  6  1  1  0
  7  2  1  0
  8  5  1  0
  9  7  1  0
 10  1  1  0
 11  3  2  0
 12  4  2  0
 13  8  1  0
 14  8  2  0
 15  9  1  0
 16  9  1  0
 17 12  1  0
 18 11  1  0
 19 14  1  0
 20 13  2  0
 21 19  2  0
  4  3  1  0
 17 18  2  0
 20 21  1  0
M  END

> <chembl_id>
CHEMBL6528

> <chembl_pref_name>
None

$$$$

     RDKit          2D

 33 37  0  0  1  0  0  0  0  0999 V2000
    7.0792   -7.2292    0.0000 C   0  0  0  0  0  0  0  0  0  0  0  0
    7.0792   -6.4417    0.0000 C   0  0  0  0  0  0  0  0  0  0  0  0
    4.9167   -7.6292    0.0000 C   0  0  0  0  0  0  0  0  0  0  0  0
    7.8375   -5.1792    0.0000 C   0  0  0  0  0  0  0  0  0  0  0  0
    6.3750   -7.6292    0.0000 C   0  0  0  0  0  0  0  0  0  0  0  0
    7.8375   -6.0417    0.0000 C   0  0  0  0  0  0  0  0  0  0  0  0
    8.5250   -7.2292    0.0000 C   0  0  0  0  0  0  0  0  0  0  0  0
    5.6375   -7.2292    0.0000 C   0  0  0  0  0  0  0  0  0  0  0  0
    8.5250   -6.4417    0.0000 C   0  0  0  0  0  0  0  0  0  0  0  0
    7.1167   -4.7375    0.0000 C   0  0  0  0  0  0  0  0  0  0  0  0
    4.9167   -8.4875    0.0000 C   0  0  0  0  0  0  0  0  0  0  0  0
    6.3750   -6.0417    0.0000 C   0  0  0  0  0  0  0  0  0  0  0  0
    7.3417   -3.9000    0.0000 C   0  0  0  0  0  0  0  0  0  0  0  0
    5.6375   -6.4417    0.0000 C   0  0  0  0  0  0  0  0  0  0  0  0
    8.2625   -3.9000    0.0000 O   0  0  0  0  0  0  0  0  0  0  0  0
    4.2292   -7.2292    0.0000 C   0  0  0  0  0  0  0  0  0  0  0  0
    6.3750   -8.4875    0.0000 C   0  0  0  0  0  0  0  0  0  0  0  0
    8.5167   -4.6417    0.0000 C   0  0  0  0  0  0  0  0  0  0  0  0
    5.6375   -8.8750    0.0000 C   0  0  0  0  0  0  0  0  0  0  0  0
    9.9000   -6.4417    0.0000 C   0  0  0  0  0  0  0  0  0  0  0  0
    7.0792   -8.2167    0.0000 O   0  0  0  0  0  0  0  0  0  0  0  0
    4.2292   -8.8750    0.0000 C   0  0  0  0  0  0  0  0  0  0  0  0
    2.2375   -8.5917    0.0000 C   0  0  0  0  0  0  0  0  0  0  0  0
    6.8250   -3.2917    0.0000 O   0  0  0  0  0  0  0  0  0  0  0  0
    9.8917   -7.2667    0.0000 O   0  0  0  0  0  0  0  0  0  0  0  0
    2.1792   -7.8750    0.0000 O   0  0  0  0  0  0  0  0  0  0  0  0
    9.2125   -6.0500    0.0000 O   0  0  0  0  0  0  0  0  0  0  0  0
    7.0792   -5.5375    0.0000 C   0  0  0  0  0  0  0  0  0  0  0  0
    3.4750   -7.6292    0.0000 C   0  0  0  0  0  0  0  0  0  0  0  0
    3.4750   -8.4875    0.0000 C   0  0  0  0  0  0  0  0  0  0  0  0
    4.9167   -6.8000    0.0000 C   0  0  0  0  0  0  0  0  0  0  0  0
    2.8875   -8.8917    0.0000 O   0  0  0  0  0  0  0  0  0  0  0  0
    8.4250   -5.6917    0.0000 H   0  0  0  0  0  0  0  0  0  0  0  0
  2  1  1  0
  3  8  1  0
  4  6  1  0
  5  1  1  0
  6  2  1  0
  7  1  1  0
  8  5  1  0
  9  7  1  0
 10  4  2  0
 11 19  1  0
 12  2  1  0
 13 10  1  0
 14  8  1  0
 15 18  1  0
 16  3  1  0
 17  5  1  0
 18  4  1  0
 19 17  1  0
 20 27  1  0
 21  1  1  0
 22 11  1  0
 23 32  1  0
 24 13  2  0
 25 20  2  0
 26 23  2  0
 27  9  1  0
 28  2  1  0
 29 16  1  0
 30 22  1  0
 31  3  1  0
 32 30  1  0
  6 33  1  6
  9  6  1  0
 14 12  1  0
 11  3  1  0
 15 13  1  0
 30 29  1  0
M  END

> <chembl_id>
CHEMBL451551

> <chembl_pref_name>
None

$$$$

     RDKit          2D

 22 22  0  0  0  0  0  0  0  0999 V2000
   -2.3000   -2.7000    0.0000 Na  0  0  0  0  0 15  0  0  0  0  0  0
   -1.4250    1.0500    0.0000 S   0  0  0  0  0  0  0  0  0  0  0  0
   -1.7333   -0.2542    0.0000 N   0  0  0  0  0  0  0  0  0  0  0  0
   -0.7125    0.6208    0.0000 C   0  0  0  0  0  0  0  0  0  0  0  0
   -2.0500    0.5125    0.0000 C   0  0  0  0  0  0  0  0  0  0  0  0
   -0.9125   -0.1875    0.0000 C   0  0  0  0  0  0  0  0  0  0  0  0
   -2.4875   -0.5667    0.0000 C   0  0  0  0  0  0  0  0  0  0  0  0
   -2.7958    0.2083    0.0000 C   0  0  0  0  0  0  0  0  0  0  0  0
   -0.3750   -0.8125    0.0000 C   0  0  0  0  0  0  0  0  0  0  0  0
   -0.7750    1.5583    0.0000 O   0  0  0  0  0  0  0  0  0  0  0  0
   -2.0875    1.5500    0.0000 O   0  0  0  0  0  0  0  0  0  0  0  0
   -0.2208    1.2833    0.0000 C   0  0  0  0  0  0  0  0  0  0  0  0
   -2.8125   -1.3250    0.0000 O   0  0  0  0  0  0  0  0  0  0  0  0
    0.6000    1.1875    0.0000 N   0  0  0  0  0  0  0  0  0  0  0  0
   -0.6458   -1.5917    0.0000 O   0  0  0  0  0  0  0  0  0  0  0  0
    0.4375   -0.6625    0.0000 O   0  0  0  0  0  0  0  0  0  0  0  0
    0.1000    0.5208    0.0000 C   0  0  0  0  0  0  0  0  0  0  0  0
   -3.5500    0.5333    0.0000 C   0  0  0  0  0  0  0  0  0  0  0  0
    1.0917    1.8500    0.0000 O   0  0  0  0  0  0  0  0  0  0  0  0
   -4.2208    0.0333    0.0000 O   0  0  0  0  0  0  0  0  0  0  0  0
    1.9125    1.7500    0.0000 C   0  0  0  0  0  0  0  0  0  0  0  0
   -2.5716    1.3657    0.0000 H   0  0  0  0  0  0  0  0  0  0  0  0
  3  5  1  0
  4  2  1  0
  5  2  1  0
  6  4  1  0
  7  8  1  0
  8  5  1  0
  6  9  1  6
 10  2  2  0
 11  2  2  0
  4 12  1  0
 13  7  2  0
 14 12  2  0
 15  9  1  0
 16  9  2  0
  4 17  1  6
  8 18  1  1
 14 19  1  0
 20 18  1  0
 21 19  1  0
  3  6  1  0
  3  7  1  0
  5 22  1  6
M  CHG  2   1   1  15  -1
M  END

> <chembl_id>
CHEMBL6678

> <chembl_pref_name>
None

$$$$

     RDKit          2D

 36 39  0  0  0  0  0  0  0  0999 V2000
    1.4167   -4.4917    0.0000 C   0  0  0  0  0  0  0  0  0  0  0  0
    2.1292   -4.9042    0.0000 C   0  0  0  0  0  0  0  0  0  0  0  0
    0.7042   -4.8917    0.0000 N   0  0  0  0  0  0  0  0  0  0  0  0
    1.4042   -6.1292    0.0000 N   0  0  0  0  0  0  0  0  0  0  0  0
    9.2417    0.0708    0.0000 N   0  0  0  0  0  0  0  0  0  0  0  0
    2.1292   -5.7292    0.0000 C   0  0  0  0  0  0  0  0  0  0  0  0
    0.7042   -5.7167    0.0000 C   0  0  0  0  0  0  0  0  0  0  0  0
    7.8292   -3.2292    0.0000 C   0  0  0  0  0  0  0  0  0  0  0  0
    4.9792   -4.8917    0.0000 N   0  0  0  0  0  0  0  0  0  0  0  0
    5.6792   -6.1542    0.0000 C   0  0  0  0  0  0  0  0  0  0  0  0
    9.2542   -0.7542    0.0000 C   0  0  0  0  0  0  0  0  0  0  0  0
    6.3792   -6.6042    0.0000 C   0  0  0  0  0  0  0  0  0  0  0  0
    8.5417   -3.6417    0.0000 N   0  0  0  0  0  0  0  0  0  0  0  0
    2.8417   -4.4792    0.0000 C   0  0  0  0  0  0  0  0  0  0  0  0
    9.9542    0.4958    0.0000 O   0  0  0  0  0  0  0  0  0  0  0  0
    8.5292    0.4833    0.0000 O   0  0  0  0  0  0  0  0  0  0  0  0
    7.1167   -3.6417    0.0000 C   0  0  0  0  0  0  0  0  0  0  0  0
    5.6917   -4.4792    0.0000 C   0  0  0  0  0  0  0  0  0  0  0  0
    1.4292   -3.6667    0.0000 O   0  0  0  0  0  0  0  0  0  0  0  0
    4.2667   -4.4792    0.0000 C   0  0  0  0  0  0  0  0  0  0  0  0
    3.5542   -4.8917    0.0000 C   0  0  0  0  0  0  0  0  0  0  0  0
    7.8292   -2.4042    0.0000 O   0  0  0  0  0  0  0  0  0  0  0  0
    2.8417   -6.1417    0.0000 C   0  0  0  0  0  0  0  0  0  0  0  0
    6.4042   -3.2417    0.0000 C   0  0  0  0  0  0  0  0  0  0  0  0
    7.1167   -4.4667    0.0000 C   0  0  0  0  0  0  0  0  0  0  0  0
    5.6917   -3.6542    0.0000 C   0  0  0  0  0  0  0  0  0  0  0  0
    6.4042   -4.8917    0.0000 C   0  0  0  0  0  0  0  0  0  0  0  0
    8.5292   -1.1667    0.0000 C   0  0  0  0  0  0  0  0  0  0  0  0
    9.9667   -1.1542    0.0000 C   0  0  0  0  0  0  0  0  0  0  0  0
    9.2542   -3.2292    0.0000 C   0  0  0  0  0  0  0  0  0  0  0  0
    4.9792   -5.7167    0.0000 C   0  0  0  0  0  0  0  0  0  0  0  0
    3.5542   -5.7292    0.0000 C   0  0  0  0  0  0  0  0  0  0  0  0
    9.2542   -2.4042    0.0000 C   0  0  0  0  0  0  0  0  0  0  0  0
    8.5417   -1.9917    0.0000 C   0  0  0  0  0  0  0  0  0  0  0  0
    9.9667   -1.9792    0.0000 C   0  0  0  0  0  0  0  0  0  0  0  0
   -0.0083   -6.1292    0.0000 C   0  0  0  0  0  0  0  0  0  0  0  0
  2  1  1  0
  3  1  2  0
  4  7  2  0
  5 11  1  0
  6  2  2  0
  7  3  1  0
  8 17  1  0
  9 20  1  0
 10 31  1  0
 11 29  2  0
 12 10  3  0
 13  8  1  0
 14  2  1  0
 15  5  1  0
 16  5  2  0
 17 25  2  0
 18  9  1  0
 19  1  1  0
 20 21  1  0
 21 14  2  0
 22  8  2  0
 23  6  1  0
 24 26  2  0
 25 27  1  0
 26 18  1  0
 27 18  2  0
 28 34  2  0
 29 35  1  0
 30 13  1  0
 31  9  1  0
 32 21  1  0
 33 30  1  0
 34 33  1  0
 35 33  2  0
 36  7  1  0
  4  6  1  0
 32 23  2  0
 24 17  1  0
 11 28  1  0
M  CHG  2   5   1  15  -1
M  END

> <chembl_id>
CHEMBL6775

> <chembl_pref_name>
None

$$$$

     RDKit          2D

 35 38  0  0  0  0  0  0  0  0999 V2000
   12.0000   -5.5750    0.0000 N   0  0  0  0  0  0  0  0  0  0  0  0
    2.1917   -6.3917    0.0000 C   0  0  0  0  0  0  0  0  0  0  0  0
   11.9917   -6.3000    0.0000 C   0  0  0  0  0  0  0  0  0  0  0  0
   10.7542   -5.5750    0.0000 C   0  0  0  0  0  0  0  0  0  0  0  0
   11.3792   -5.2125    0.0000 C   0  0  0  0  0  0  0  0  0  0  0  0
    2.1792   -7.2167    0.0000 C   0  0  0  0  0  0  0  0  0  0  0  0
   10.7542   -6.2917    0.0000 S   0  0  0  0  0  0  0  0  0  0  0  0
    1.4750   -5.9792    0.0000 C   0  0  0  0  0  0  0  0  0  0  0  0
    0.7625   -7.2250    0.0000 C   0  0  0  0  0  0  0  0  0  0  0  0
    1.4750   -7.6375    0.0000 C   0  0  0  0  0  0  0  0  0  0  0  0
    0.7625   -6.3917    0.0000 C   0  0  0  0  0  0  0  0  0  0  0  0
    2.9042   -5.9750    0.0000 O   0  0  0  0  0  0  0  0  0  0  0  0
   10.0417   -5.1625    0.0000 C   0  0  0  0  0  0  0  0  0  0  0  0
    3.6167   -6.3917    0.0000 C   0  0  0  0  0  0  0  0  0  0  0  0
    2.9042   -7.6375    0.0000 C   0  0  0  0  0  0  0  0  0  0  0  0
   12.5792   -6.8875    0.0000 O   0  0  0  0  0  0  0  0  0  0  0  0
   11.3750   -4.4875    0.0000 O   0  0  0  0  0  0  0  0  0  0  0  0
    4.3292   -6.8042    0.0000 C   0  0  0  0  0  0  0  0  0  0  0  0
    9.3292   -5.5750    0.0000 C   0  0  0  0  0  0  0  0  0  0  0  0
    3.6167   -7.2250    0.0000 C   0  0  0  0  0  0  0  0  0  0  0  0
    0.0417   -7.6292    0.0000 O   0  0  0  0  0  0  0  0  0  0  0  0
    5.0417   -6.3917    0.0000 N   0  0  0  0  0  0  0  0  0  0  0  0
    7.9042   -6.3917    0.0000 C   0  0  0  0  0  0  0  0  0  0  0  0
    9.3292   -6.4000    0.0000 C   0  0  0  0  0  0  0  0  0  0  0  0
    8.6125   -5.1625    0.0000 C   0  0  0  0  0  0  0  0  0  0  0  0
    1.4667   -5.1542    0.0000 C   0  0  0  0  0  0  0  0  0  0  0  0
    1.4792   -8.4625    0.0000 C   0  0  0  0  0  0  0  0  0  0  0  0
    0.0500   -5.9875    0.0000 C   0  0  0  0  0  0  0  0  0  0  0  0
    8.6167   -6.8125    0.0000 C   0  0  0  0  0  0  0  0  0  0  0  0
    7.9000   -5.5750    0.0000 C   0  0  0  0  0  0  0  0  0  0  0  0
    7.1875   -6.8042    0.0000 O   0  0  0  0  0  0  0  0  0  0  0  0
    6.4750   -6.3917    0.0000 C   0  0  0  0  0  0  0  0  0  0  0  0
    4.3375   -5.9875    0.0000 C   0  0  0  0  0  0  0  0  0  0  0  0
    5.7542   -6.8042    0.0000 C   0  0  0  0  0  0  0  0  0  0  0  0
    5.0417   -5.5667    0.0000 C   0  0  0  0  0  0  0  0  0  0  0  0
  2 12  1  0
  3  1  1  0
  4  5  1  0
  5  1  1  0
  6 15  1  0
  7  3  1  0
  8  2  2  0
  9 10  1  0
 10  6  2  0
 11  8  1  0
 12 14  1  0
 13  4  2  0
 14 18  1  0
 15 20  1  0
 16  3  2  0
 17  5  2  0
 18 22  1  0
 19 13  1  0
 20 14  1  0
 21  9  1  0
 22 34  1  0
 23 29  2  0
 24 19  2  0
 25 19  1  0
 26  8  1  0
 27 10  1  0
 28 11  1  0
 29 24  1  0
 30 25  2  0
 31 23  1  0
 32 31  1  0
 33 14  1  0
 34 32  1  0
 35 22  1  0
  7  4  1  0
 30 23  1  0
  6  2  1  0
  9 11  2  0
M  END

> <chembl_id>
CHEMBL6471

> <chembl_pref_name>
None

$$$$

     RDKit          2D

 28 31  0  0  0  0  0  0  0  0999 V2000
    6.2875   -5.1750    0.0000 C   0  0  0  0  0  0  0  0  0  0  0  0
    6.2917   -6.0042    0.0000 N   0  0  0  0  0  0  0  0  0  0  0  0
    4.8625   -6.0042    0.0000 C   0  0  0  0  0  0  0  0  0  0  0  0
    5.5792   -6.4167    0.0000 C   0  0  0  0  0  0  0  0  0  0  0  0
    5.5667   -4.7667    0.0000 N   0  0  0  0  0  0  0  0  0  0  0  0
    4.8625   -5.1792    0.0000 C   0  0  0  0  0  0  0  0  0  0  0  0
    7.0000   -4.7542    0.0000 N   0  0  0  0  0  0  0  0  0  0  0  0
    4.1417   -6.4250    0.0000 C   0  0  0  0  0  0  0  0  0  0  0  0
    4.1417   -4.7667    0.0000 C   0  0  0  0  0  0  0  0  0  0  0  0
    9.1375   -3.5167    0.0000 C   0  0  0  0  0  0  0  0  0  0  0  0
    3.4292   -6.0125    0.0000 C   0  0  0  0  0  0  0  0  0  0  0  0
    3.4292   -5.1875    0.0000 C   0  0  0  0  0  0  0  0  0  0  0  0
    9.1292   -2.6917    0.0000 N   0  0  0  0  0  0  0  0  0  0  0  0
    8.4167   -1.4542    0.0000 C   0  0  0  0  0  0  0  0  0  0  0  0
    8.8250   -0.7417    0.0000 C   0  0  0  0  0  0  0  0  0  0  0  0
    8.0000   -0.7417    0.0000 C   0  0  0  0  0  0  0  0  0  0  0  0
    8.4250   -3.9292    0.0000 C   0  0  0  0  0  0  0  0  0  0  0  0
    6.9917   -3.9292    0.0000 C   0  0  0  0  0  0  0  0  0  0  0  0
    7.7125   -5.1667    0.0000 C   0  0  0  0  0  0  0  0  0  0  0  0
    9.8500   -3.9250    0.0000 O   0  0  0  0  0  0  0  0  0  0  0  0
    5.5792   -7.2417    0.0000 N   0  0  0  0  0  0  0  0  0  0  0  0
    8.4250   -4.7542    0.0000 C   0  0  0  0  0  0  0  0  0  0  0  0
    7.7042   -3.5167    0.0000 C   0  0  0  0  0  0  0  0  0  0  0  0
    8.4167   -2.2792    0.0000 C   0  0  0  0  0  0  0  0  0  0  0  0
    2.7167   -6.4250    0.0000 O   0  0  0  0  0  0  0  0  0  0  0  0
    2.7167   -4.7750    0.0000 O   0  0  0  0  0  0  0  0  0  0  0  0
    2.7167   -3.9500    0.0000 C   0  0  0  0  0  0  0  0  0  0  0  0
    2.7167   -7.2500    0.0000 C   0  0  0  0  0  0  0  0  0  0  0  0
  2  1  1  0
  3  6  1  0
  4  2  2  0
  5  1  2  0
  6  5  1  0
  7  1  1  0
  8  3  2  0
  9  6  2  0
 10 17  1  0
 11 12  2  0
 12  9  1  0
 13 10  1  0
 14 24  1  0
 15 14  1  0
 16 14  1  0
 17 22  1  0
 18  7  1  0
 19  7  1  0
 20 10  2  0
 21  4  1  0
 22 19  1  0
 23 18  1  0
 24 13  1  0
 25 11  1  0
 26 12  1  0
 27 26  1  0
 28 25  1  0
  4  3  1  0
 17 23  1  0
 11  8  1  0
 15 16  1  0
M  END

> <chembl_id>
CHEMBL6447

> <chembl_pref_name>
None

$$$$

     RDKit          2D

 28 30  0  0  0  0  0  0  0  0999 V2000
    4.6792   -3.5042    0.0000 C   0  0  0  0  0  0  0  0  0  0  0  0
    4.6792   -4.3292    0.0000 N   0  0  0  0  0  0  0  0  0  0  0  0
    3.2542   -4.3375    0.0000 C   0  0  0  0  0  0  0  0  0  0  0  0
    3.9667   -4.7500    0.0000 C   0  0  0  0  0  0  0  0  0  0  0  0
    3.9625   -3.0917    0.0000 N   0  0  0  0  0  0  0  0  0  0  0  0
    3.2542   -3.5125    0.0000 C   0  0  0  0  0  0  0  0  0  0  0  0
    5.3917   -3.0875    0.0000 N   0  0  0  0  0  0  0  0  0  0  0  0
    2.5375   -4.7542    0.0000 C   0  0  0  0  0  0  0  0  0  0  0  0
    2.5375   -3.1000    0.0000 C   0  0  0  0  0  0  0  0  0  0  0  0
    7.5292   -1.8417    0.0000 C   0  0  0  0  0  0  0  0  0  0  0  0
    1.8250   -4.3417    0.0000 C   0  0  0  0  0  0  0  0  0  0  0  0
    1.8250   -3.5167    0.0000 C   0  0  0  0  0  0  0  0  0  0  0  0
    6.1042   -3.5000    0.0000 C   0  0  0  0  0  0  0  0  0  0  0  0
    5.3792   -2.2625    0.0000 C   0  0  0  0  0  0  0  0  0  0  0  0
    6.8167   -2.2542    0.0000 C   0  0  0  0  0  0  0  0  0  0  0  0
    8.2417   -2.2542    0.0000 O   0  0  0  0  0  0  0  0  0  0  0  0
    3.9667   -5.5750    0.0000 N   0  0  0  0  0  0  0  0  0  0  0  0
    6.0917   -1.8500    0.0000 C   0  0  0  0  0  0  0  0  0  0  0  0
    6.8167   -3.0792    0.0000 C   0  0  0  0  0  0  0  0  0  0  0  0
    7.5250   -1.0167    0.0000 N   0  0  0  0  0  0  0  0  0  0  0  0
    1.1042   -4.7542    0.0000 O   0  0  0  0  0  0  0  0  0  0  0  0
    1.1125   -3.1042    0.0000 O   0  0  0  0  0  0  0  0  0  0  0  0
    8.2417   -0.6042    0.0000 C   0  0  0  0  0  0  0  0  0  0  0  0
    1.1125   -2.2792    0.0000 C   0  0  0  0  0  0  0  0  0  0  0  0
    1.1042   -5.5792    0.0000 C   0  0  0  0  0  0  0  0  0  0  0  0
    8.9542   -1.0167    0.0000 C   0  0  0  0  0  0  0  0  0  0  0  0
    9.6667   -0.6042    0.0000 C   0  0  0  0  0  0  0  0  0  0  0  0
   10.3792   -1.0167    0.0000 C   0  0  0  0  0  0  0  0  0  0  0  0
  2  1  1  0
  3  6  1  0
  4  2  2  0
  5  1  2  0
  6  5  1  0
  7  1  1  0
  8  3  2  0
  9  6  2  0
 10 15  1  0
 11 12  2  0
 12  9  1  0
 13  7  1  0
 14  7  1  0
 15 18  1  0
 16 10  2  0
 17  4  1  0
 18 14  1  0
 19 13  1  0
 20 10  1  0
 21 11  1  0
 22 12  1  0
 23 20  1  0
 24 22  1  0
 25 21  1  0
 26 23  1  0
 27 26  1  0
 28 27  1  0
  4  3  1  0
 15 19  1  0
 11  8  1  0
M  END

> <chembl_id>
CHEMBL6556

> <chembl_pref_name>
None

$$$$

     RDKit          2D

 28 30  0  0  0  0  0  0  0  0999 V2000
    6.2875   -5.1750    0.0000 C   0  0  0  0  0  0  0  0  0  0  0  0
    6.2917   -6.0042    0.0000 N   0  0  0  0  0  0  0  0  0  0  0  0
    4.8625   -6.0042    0.0000 C   0  0  0  0  0  0  0  0  0  0  0  0
    5.5792   -6.4167    0.0000 C   0  0  0  0  0  0  0  0  0  0  0  0
    5.5667   -4.7667    0.0000 N   0  0  0  0  0  0  0  0  0  0  0  0
    4.8625   -5.1792    0.0000 C   0  0  0  0  0  0  0  0  0  0  0  0
    7.0000   -4.7542    0.0000 N   0  0  0  0  0  0  0  0  0  0  0  0
    7.7042   -3.5167    0.0000 C   0  0  0  0  0  0  0  0  0  0  0  0
    4.1417   -6.4250    0.0000 C   0  0  0  0  0  0  0  0  0  0  0  0
    4.1417   -4.7667    0.0000 C   0  0  0  0  0  0  0  0  0  0  0  0
    7.7042   -2.6917    0.0000 C   0  0  0  0  0  0  0  0  0  0  0  0
    6.9917   -3.9292    0.0000 C   0  0  0  0  0  0  0  0  0  0  0  0
    3.4292   -6.0125    0.0000 C   0  0  0  0  0  0  0  0  0  0  0  0
    3.4292   -5.1875    0.0000 C   0  0  0  0  0  0  0  0  0  0  0  0
    8.4167   -2.2792    0.0000 O   0  0  0  0  0  0  0  0  0  0  0  0
    5.5792   -7.2417    0.0000 N   0  0  0  0  0  0  0  0  0  0  0  0
    6.9875   -2.2792    0.0000 N   0  0  0  0  0  0  0  0  0  0  0  0
    7.7125   -5.1667    0.0000 C   0  0  0  0  0  0  0  0  0  0  0  0
    2.7167   -6.4250    0.0000 O   0  0  0  0  0  0  0  0  0  0  0  0
    2.7167   -4.7750    0.0000 O   0  0  0  0  0  0  0  0  0  0  0  0
    8.4250   -3.9292    0.0000 C   0  0  0  0  0  0  0  0  0  0  0  0
    8.4250   -4.7542    0.0000 C   0  0  0  0  0  0  0  0  0  0  0  0
    6.2750   -2.7000    0.0000 C   0  0  0  0  0  0  0  0  0  0  0  0
    2.7167   -7.2500    0.0000 C   0  0  0  0  0  0  0  0  0  0  0  0
    2.7167   -3.9500    0.0000 C   0  0  0  0  0  0  0  0  0  0  0  0
    5.5542   -2.2875    0.0000 C   0  0  0  0  0  0  0  0  0  0  0  0
    4.8417   -2.7042    0.0000 C   0  0  0  0  0  0  0  0  0  0  0  0
    4.1292   -2.2917    0.0000 C   0  0  0  0  0  0  0  0  0  0  0  0
  2  1  1  0
  3  6  1  0
  4  2  2  0
  5  1  2  0
  6  5  1  0
  7  1  1  0
  8 12  1  0
  9  3  2  0
 10  6  2  0
 11  8  1  0
 12  7  1  0
 13 14  2  0
 14 10  1  0
 15 11  2  0
 16  4  1  0
 17 11  1  0
 18  7  1  0
 19 13  1  0
 20 14  1  0
 21 22  1  0
 22 18  1  0
 23 17  1  0
 24 19  1  0
 25 20  1  0
 26 23  1  0
 27 26  1  0
 28 27  1  0
  4  3  1  0
 21  8  1  0
 13  9  1  0
M  END

> <chembl_id>
CHEMBL266279

> <chembl_pref_name>
None

$$$$

     RDKit          2D

 23 24  0  0  1  0  0  0  0  0999 V2000
    5.3292   -3.2542    0.0000 C   0  0  0  0  0  0  0  0  0  0  0  0
    4.6167   -3.6792    0.0000 C   0  0  0  0  0  0  0  0  0  0  0  0
    7.4042   -1.6542    0.0000 N   0  0  0  0  0  0  0  0  0  0  0  0
    6.7792   -2.2042    0.0000 C   0  0  0  0  0  0  0  0  0  0  0  0
    6.0542   -4.5042    0.0000 C   0  0  0  0  0  0  0  0  0  0  0  0
    6.0542   -3.6792    0.0000 C   0  0  0  0  0  0  0  0  0  0  0  0
    5.3292   -4.9167    0.0000 O   0  0  0  0  0  0  0  0  0  0  0  0
    4.6167   -4.4917    0.0000 C   0  0  0  0  0  0  0  0  0  0  0  0
    6.0042   -1.9542    0.0000 C   0  0  0  0  0  0  0  0  0  0  0  0
    5.3292   -2.4292    0.0000 N   0  0  0  0  0  0  0  0  0  0  0  0
    1.7542   -2.8542    0.0000 N   0  0  0  0  0  0  0  0  0  0  0  0
    2.4792   -3.2667    0.0000 C   0  0  0  0  0  0  0  0  0  0  0  0
    3.9042   -3.2667    0.0000 C   0  0  0  0  0  0  0  0  0  0  0  0
    8.1792   -1.9167    0.0000 O   0  0  0  0  0  0  0  0  0  0  0  0
    7.2292   -0.8542    0.0000 O   0  0  0  0  0  0  0  0  0  0  0  0
    3.9042   -4.9167    0.0000 C   0  0  0  0  0  0  0  0  0  0  0  0
    5.7417   -1.1667    0.0000 N   0  0  0  0  0  0  0  0  0  0  0  0
    3.1917   -3.6792    0.0000 C   0  0  0  0  0  0  0  0  0  0  0  0
    6.7667   -3.2667    0.0000 O   0  0  0  0  0  0  0  0  0  0  0  0
    3.1917   -4.5042    0.0000 C   0  0  0  0  0  0  0  0  0  0  0  0
    6.7667   -4.9167    0.0000 C   0  0  0  0  0  0  0  0  0  0  0  0
    5.8292   -5.3042    0.0000 C   0  0  0  0  0  0  0  0  0  0  0  0
    4.9417   -0.9917    0.0000 C   0  0  0  0  0  0  0  0  0  0  0  0
  2  1  1  0
  3  4  1  0
  4  9  2  0
  5  6  1  0
  6  1  1  0
  7  5  1  0
  8  2  1  0
  9 10  1  0
 10  1  1  0
 11 12  3  0
 12 18  1  0
 13  2  2  0
 14  3  1  0
 15  3  2  0
 16  8  2  0
 17  9  1  0
 18 13  1  0
  6 19  1  6
 20 18  2  0
 21  5  1  0
 22  5  1  0
 23 17  1  0
  7  8  1  0
 20 16  1  0
M  CHG  2   3   1  14  -1
M  END

> <chembl_id>
CHEMBL6443

> <chembl_pref_name>
None

$$$$

     RDKit          2D

 33 36  0  0  0  0  0  0  0  0999 V2000
    1.4792   -3.8667    0.0000 C   0  0  0  0  0  0  0  0  0  0  0  0
    2.1792   -4.2792    0.0000 C   0  0  0  0  0  0  0  0  0  0  0  0
    0.7667   -4.2792    0.0000 N   0  0  0  0  0  0  0  0  0  0  0  0
    1.4667   -5.5167    0.0000 N   0  0  0  0  0  0  0  0  0  0  0  0
    2.1792   -5.1042    0.0000 C   0  0  0  0  0  0  0  0  0  0  0  0
    0.7667   -5.0917    0.0000 C   0  0  0  0  0  0  0  0  0  0  0  0
    9.9792   -1.2792    0.0000 N   0  0  0  0  0  0  0  0  0  0  0  0
    9.3042   -1.7792    0.0000 C   0  0  0  0  0  0  0  0  0  0  0  0
    8.6375   -1.3042    0.0000 S   0  0  0  0  0  0  0  0  0  0  0  0
    7.8875   -2.6042    0.0000 C   0  0  0  0  0  0  0  0  0  0  0  0
    9.7250   -0.5042    0.0000 C   0  0  0  0  0  0  0  0  0  0  0  0
    5.0375   -4.2667    0.0000 N   0  0  0  0  0  0  0  0  0  0  0  0
    5.7292   -5.5292    0.0000 C   0  0  0  0  0  0  0  0  0  0  0  0
    8.9000   -0.5042    0.0000 C   0  0  0  0  0  0  0  0  0  0  0  0
    8.6000   -3.0167    0.0000 N   0  0  0  0  0  0  0  0  0  0  0  0
    6.4375   -5.9792    0.0000 C   0  0  0  0  0  0  0  0  0  0  0  0
    2.8875   -3.8667    0.0000 C   0  0  0  0  0  0  0  0  0  0  0  0
    7.1750   -3.0292    0.0000 C   0  0  0  0  0  0  0  0  0  0  0  0
    5.7500   -3.8542    0.0000 C   0  0  0  0  0  0  0  0  0  0  0  0
    1.4792   -3.0417    0.0000 O   0  0  0  0  0  0  0  0  0  0  0  0
    4.3167   -3.8542    0.0000 C   0  0  0  0  0  0  0  0  0  0  0  0
    3.6000   -4.2792    0.0000 C   0  0  0  0  0  0  0  0  0  0  0  0
    7.8792   -1.7792    0.0000 O   0  0  0  0  0  0  0  0  0  0  0  0
    2.8875   -5.5167    0.0000 C   0  0  0  0  0  0  0  0  0  0  0  0
    9.3125   -2.6042    0.0000 C   0  0  0  0  0  0  0  0  0  0  0  0
    6.4500   -2.6167    0.0000 C   0  0  0  0  0  0  0  0  0  0  0  0
    7.1750   -3.8542    0.0000 C   0  0  0  0  0  0  0  0  0  0  0  0
    5.7375   -3.0292    0.0000 C   0  0  0  0  0  0  0  0  0  0  0  0
    6.4625   -4.2667    0.0000 C   0  0  0  0  0  0  0  0  0  0  0  0
    5.0375   -5.0917    0.0000 C   0  0  0  0  0  0  0  0  0  0  0  0
    3.6000   -5.1042    0.0000 C   0  0  0  0  0  0  0  0  0  0  0  0
    0.0417   -5.5042    0.0000 C   0  0  0  0  0  0  0  0  0  0  0  0
   10.2000    0.1583    0.0000 C   0  0  0  0  0  0  0  0  0  0  0  0
  2  1  1  0
  3  1  2  0
  4  6  2  0
  5  2  2  0
  6  3  1  0
  7  8  2  0
  8 25  1  0
  9  8  1  0
 10 18  1  0
 11  7  1  0
 12 21  1  0
 13 30  1  0
 14  9  1  0
 15 10  1  0
 16 13  3  0
 17  2  1  0
 18 27  2  0
 19 12  1  0
 20  1  1  0
 21 22  1  0
 22 17  2  0
 23 10  2  0
 24  5  1  0
 25 15  1  0
 26 28  2  0
 27 29  1  0
 28 19  1  0
 29 19  2  0
 30 12  1  0
 31 22  1  0
 32  6  1  0
 33 11  1  0
  5  4  1  0
 24 31  2  0
 26 18  1  0
 11 14  2  0
M  END

> <chembl_id>
CHEMBL269600

> <chembl_pref_name>
None

$$$$

     RDKit          2D

 29 32  0  0  0  0  0  0  0  0999 V2000
    6.2875   -5.1750    0.0000 C   0  0  0  0  0  0  0  0  0  0  0  0
    6.2917   -6.0042    0.0000 N   0  0  0  0  0  0  0  0  0  0  0  0
    4.8625   -6.0042    0.0000 C   0  0  0  0  0  0  0  0  0  0  0  0
    5.5792   -6.4167    0.0000 C   0  0  0  0  0  0  0  0  0  0  0  0
    5.5667   -4.7667    0.0000 N   0  0  0  0  0  0  0  0  0  0  0  0
    4.8625   -5.1792    0.0000 C   0  0  0  0  0  0  0  0  0  0  0  0
    7.0000   -4.7542    0.0000 N   0  0  0  0  0  0  0  0  0  0  0  0
    9.1375   -3.5167    0.0000 C   0  0  0  0  0  0  0  0  0  0  0  0
    4.1417   -6.4250    0.0000 C   0  0  0  0  0  0  0  0  0  0  0  0
    4.1417   -4.7667    0.0000 C   0  0  0  0  0  0  0  0  0  0  0  0
    9.1292   -2.6917    0.0000 N   0  0  0  0  0  0  0  0  0  0  0  0
    3.4292   -6.0125    0.0000 C   0  0  0  0  0  0  0  0  0  0  0  0
    3.4292   -5.1875    0.0000 C   0  0  0  0  0  0  0  0  0  0  0  0
    8.4250   -3.9292    0.0000 C   0  0  0  0  0  0  0  0  0  0  0  0
    7.7125   -5.1667    0.0000 C   0  0  0  0  0  0  0  0  0  0  0  0
    6.9917   -3.9292    0.0000 C   0  0  0  0  0  0  0  0  0  0  0  0
    9.8500   -3.9250    0.0000 O   0  0  0  0  0  0  0  0  0  0  0  0
    5.5792   -7.2417    0.0000 N   0  0  0  0  0  0  0  0  0  0  0  0
    7.7042   -3.5167    0.0000 C   0  0  0  0  0  0  0  0  0  0  0  0
    8.4250   -4.7542    0.0000 C   0  0  0  0  0  0  0  0  0  0  0  0
    8.4167   -2.2792    0.0000 C   0  0  0  0  0  0  0  0  0  0  0  0
    2.7167   -6.4250    0.0000 O   0  0  0  0  0  0  0  0  0  0  0  0
    2.7167   -4.7750    0.0000 O   0  0  0  0  0  0  0  0  0  0  0  0
    2.7167   -7.2500    0.0000 C   0  0  0  0  0  0  0  0  0  0  0  0
    2.7167   -3.9500    0.0000 C   0  0  0  0  0  0  0  0  0  0  0  0
    7.7917   -2.6417    0.0000 C   0  0  0  0  0  0  0  0  0  0  0  0
    8.4167   -1.5625    0.0000 C   0  0  0  0  0  0  0  0  0  0  0  0
    7.1667   -2.2792    0.0000 C   0  0  0  0  0  0  0  0  0  0  0  0
    7.7917   -1.2000    0.0000 C   0  0  0  0  0  0  0  0  0  0  0  0
  2  1  1  0
  3  6  1  0
  4  2  2  0
  5  1  2  0
  6  5  1  0
  7  1  1  0
  8 14  1  0
  9  3  2  0
 10  6  2  0
 11  8  1  0
 12 13  2  0
 13 10  1  0
 14 19  1  0
 15  7  1  0
 16  7  1  0
 17  8  2  0
 18  4  1  0
 19 16  1  0
 20 15  1  0
 21 11  1  0
 22 12  1  0
 23 13  1  0
 24 22  1  0
 25 23  1  0
 26 21  1  0
 27 21  1  0
 28 26  1  0
 29 27  1  0
  4  3  1  0
 14 20  1  0
 12  9  1  0
 29 28  1  0
M  END

> <chembl_id>
CHEMBL6598

> <chembl_pref_name>
None

$$$$

     RDKit          2D

 24 26  0  0  0  0  0  0  0  0999 V2000
    4.3542   -4.0917    0.0000 S   0  0  0  0  0  0  0  0  0  0  0  0
    5.0625   -4.5042    0.0000 N   0  0  0  0  0  0  0  0  0  0  0  0
    4.3542   -3.2667    0.0000 C   0  0  0  0  0  0  0  0  0  0  0  0
    5.7792   -4.0792    0.0000 C   0  0  0  0  0  0  0  0  0  0  0  0
    3.6292   -2.8542    0.0000 C   0  0  0  0  0  0  0  0  0  0  0  0
    3.6292   -2.0250    0.0000 C   0  0  0  0  0  0  0  0  0  0  0  0
    2.9042   -1.6042    0.0000 C   0  0  0  0  0  0  0  0  0  0  0  0
    6.5042   -4.5000    0.0000 N   0  0  0  0  0  0  0  0  0  0  0  0
    5.7667   -3.2542    0.0000 N   0  0  0  0  0  0  0  0  0  0  0  0
    3.5125   -4.0792    0.0000 O   0  0  0  0  0  0  0  0  0  0  0  0
    4.3417   -4.9250    0.0000 O   0  0  0  0  0  0  0  0  0  0  0  0
    2.9042   -0.7792    0.0000 N   0  0  0  0  0  0  0  0  0  0  0  0
    7.2125   -3.2417    0.0000 C   0  0  0  0  0  0  0  0  0  0  0  0
    7.2125   -4.0792    0.0000 C   0  0  0  0  0  0  0  0  0  0  0  0
    6.4875   -2.8375    0.0000 C   0  0  0  0  0  0  0  0  0  0  0  0
    7.9250   -2.8292    0.0000 Cl  0  0  0  0  0  0  0  0  0  0  0  0
    5.0667   -2.8500    0.0000 C   0  0  0  0  0  0  0  0  0  0  0  0
    2.9042   -3.2667    0.0000 C   0  0  0  0  0  0  0  0  0  0  0  0
    4.3417   -1.6042    0.0000 C   0  0  0  0  0  0  0  0  0  0  0  0
    2.1917   -2.0250    0.0000 C   0  0  0  0  0  0  0  0  0  0  0  0
    5.0667   -2.0167    0.0000 C   0  0  0  0  0  0  0  0  0  0  0  0
    2.1917   -2.8542    0.0000 C   0  0  0  0  0  0  0  0  0  0  0  0
    2.1875   -0.3625    0.0000 C   0  0  0  0  0  0  0  0  0  0  0  0
    3.6292   -0.3542    0.0000 C   0  0  0  0  0  0  0  0  0  0  0  0
  2  1  1  0
  3  1  1  0
  4  2  1  0
  5  3  1  0
  6  5  2  0
  7  6  1  0
  8  4  1  0
  9  4  2  0
 10  1  2  0
 11  1  2  0
 12  7  1  0
 13 15  2  0
 14  8  2  0
 15  9  1  0
 16 13  1  0
 17  3  2  0
 18  5  1  0
 19 21  2  0
 20 22  1  0
 21 17  1  0
 22 18  2  0
 23 12  1  0
 24 12  1  0
 19  6  1  0
 13 14  1  0
 20  7  2  0
M  END

> <chembl_id>
CHEMBL6433

> <chembl_pref_name>
None

$$$$

     RDKit          2D

 24 26  0  0  0  0  0  0  0  0999 V2000
    4.3875   -4.0917    0.0000 S   0  0  0  0  0  0  0  0  0  0  0  0
    5.1042   -4.5042    0.0000 N   0  0  0  0  0  0  0  0  0  0  0  0
    4.3875   -3.2667    0.0000 C   0  0  0  0  0  0  0  0  0  0  0  0
    3.6792   -2.8542    0.0000 C   0  0  0  0  0  0  0  0  0  0  0  0
    3.6792   -2.0250    0.0000 C   0  0  0  0  0  0  0  0  0  0  0  0
    2.9542   -1.6042    0.0000 C   0  0  0  0  0  0  0  0  0  0  0  0
    5.8250   -4.0792    0.0000 C   0  0  0  0  0  0  0  0  0  0  0  0
    3.5667   -4.0792    0.0000 O   0  0  0  0  0  0  0  0  0  0  0  0
    4.3875   -4.9250    0.0000 O   0  0  0  0  0  0  0  0  0  0  0  0
    5.8167   -3.2542    0.0000 N   0  0  0  0  0  0  0  0  0  0  0  0
    2.9542   -0.7792    0.0000 N   0  0  0  0  0  0  0  0  0  0  0  0
    6.5292   -2.8375    0.0000 C   0  0  0  0  0  0  0  0  0  0  0  0
    6.5542   -4.5000    0.0000 C   0  0  0  0  0  0  0  0  0  0  0  0
    7.2625   -3.2417    0.0000 C   0  0  0  0  0  0  0  0  0  0  0  0
    5.1167   -2.8500    0.0000 C   0  0  0  0  0  0  0  0  0  0  0  0
    2.9542   -3.2667    0.0000 C   0  0  0  0  0  0  0  0  0  0  0  0
    4.3875   -1.6042    0.0000 C   0  0  0  0  0  0  0  0  0  0  0  0
    7.2625   -4.0792    0.0000 C   0  0  0  0  0  0  0  0  0  0  0  0
    2.2417   -2.0250    0.0000 C   0  0  0  0  0  0  0  0  0  0  0  0
    2.2417   -2.8542    0.0000 C   0  0  0  0  0  0  0  0  0  0  0  0
    5.1167   -2.0167    0.0000 C   0  0  0  0  0  0  0  0  0  0  0  0
    3.6792   -0.3542    0.0000 C   0  0  0  0  0  0  0  0  0  0  0  0
    2.2375   -0.3625    0.0000 C   0  0  0  0  0  0  0  0  0  0  0  0
    7.9667   -2.8292    0.0000 C   0  0  0  0  0  0  0  0  0  0  0  0
  2  1  1  0
  3  1  1  0
  4  3  1  0
  5  4  2  0
  6  5  1  0
  7  2  1  0
  8  1  2  0
  9  1  2  0
 10  7  2  0
 11  6  1  0
 12 10  1  0
 13  7  1  0
 14 18  1  0
 15  3  2  0
 16  4  1  0
 17 21  2  0
 18 13  2  0
 19 20  1  0
 20 16  2  0
 21 15  1  0
 22 11  1  0
 23 11  1  0
 24 14  1  0
 17  5  1  0
 19  6  2  0
 14 12  2  0
M  END

> <chembl_id>
CHEMBL6463

> <chembl_pref_name>
None

$$$$

     RDKit          2D

 21 22  0  0  1  0  0  0  0  0999 V2000
    5.3792   -3.2542    0.0000 C   0  0  0  0  0  0  0  0  0  0  0  0
    4.6667   -3.6792    0.0000 C   0  0  0  0  0  0  0  0  0  0  0  0
    6.0917   -4.5042    0.0000 C   0  0  0  0  0  0  0  0  0  0  0  0
    6.0917   -3.6792    0.0000 C   0  0  0  0  0  0  0  0  0  0  0  0
    5.3792   -4.9167    0.0000 O   0  0  0  0  0  0  0  0  0  0  0  0
    4.6667   -4.4917    0.0000 C   0  0  0  0  0  0  0  0  0  0  0  0
    6.8292   -2.2042    0.0000 N   0  0  0  0  0  0  0  0  0  0  0  0
    6.0417   -1.9542    0.0000 C   0  0  0  0  0  0  0  0  0  0  0  0
    7.6292   -2.4167    0.0000 C   0  0  0  0  0  0  0  0  0  0  0  0
    5.3792   -2.4292    0.0000 N   0  0  0  0  0  0  0  0  0  0  0  0
    8.4167   -2.6292    0.0000 N   0  0  0  0  0  0  0  0  0  0  0  0
    1.8042   -2.8542    0.0000 N   0  0  0  0  0  0  0  0  0  0  0  0
    2.5167   -3.2667    0.0000 C   0  0  0  0  0  0  0  0  0  0  0  0
    3.9542   -3.2667    0.0000 C   0  0  0  0  0  0  0  0  0  0  0  0
    3.9542   -4.9167    0.0000 C   0  0  0  0  0  0  0  0  0  0  0  0
    3.2417   -3.6792    0.0000 C   0  0  0  0  0  0  0  0  0  0  0  0
    5.7917   -1.1667    0.0000 N   0  0  0  0  0  0  0  0  0  0  0  0
    6.8167   -3.2667    0.0000 O   0  0  0  0  0  0  0  0  0  0  0  0
    3.2417   -4.5042    0.0000 C   0  0  0  0  0  0  0  0  0  0  0  0
    6.8042   -4.9167    0.0000 C   0  0  0  0  0  0  0  0  0  0  0  0
    5.8792   -5.3042    0.0000 C   0  0  0  0  0  0  0  0  0  0  0  0
  2  1  1  0
  3  4  1  0
  4  1  1  0
  5  3  1  0
  6  2  1  0
  7  8  1  0
  8 10  2  0
  9  7  1  0
 10  1  1  0
 11  9  3  0
 12 13  3  0
 13 16  1  0
 14  2  2  0
 15  6  2  0
 16 14  1  0
 17  8  1  0
  4 18  1  6
 19 16  2  0
 20  3  1  0
 21  3  1  0
  5  6  1  0
 19 15  1  0
M  END

> <chembl_id>
CHEMBL269536

> <chembl_pref_name>
None

$$$$

     RDKit          2D

 21 24  0  0  0  0  0  0  0  0999 V2000
    2.7542   -4.2292    0.0000 N   0  0  0  0  0  0  0  0  0  0  0  0
    3.4792   -2.9917    0.0000 C   0  0  0  0  0  0  0  0  0  0  0  0
    3.4792   -3.8167    0.0000 C   0  0  0  0  0  0  0  0  0  0  0  0
    2.0417   -2.9792    0.0000 C   0  0  0  0  0  0  0  0  0  0  0  0
    2.0417   -3.8042    0.0000 C   0  0  0  0  0  0  0  0  0  0  0  0
    2.7500   -5.0500    0.0000 C   0  0  0  0  0  0  0  0  0  0  0  0
    2.0292   -5.4542    0.0000 N   0  0  0  0  0  0  0  0  0  0  0  0
    3.2292   -2.2042    0.0000 O   0  0  0  0  0  0  0  0  0  0  0  0
    4.3042   -2.9917    0.0000 O   0  0  0  0  0  0  0  0  0  0  0  0
    4.1917   -4.2292    0.0000 O   0  0  0  0  0  0  0  0  0  0  0  0
    1.3292   -2.5667    0.0000 C   0  0  0  0  0  0  0  0  0  0  0  0
    1.3292   -4.2292    0.0000 C   0  0  0  0  0  0  0  0  0  0  0  0
    2.1792   -6.2667    0.0000 C   0  0  0  0  0  0  0  0  0  0  0  0
    1.2417   -5.1792    0.0000 C   0  0  0  0  0  0  0  0  0  0  0  0
    3.8917   -1.7167    0.0000 C   0  0  0  0  0  0  0  0  0  0  0  0
    4.5667   -2.2042    0.0000 C   0  0  0  0  0  0  0  0  0  0  0  0
    0.6167   -2.9917    0.0000 C   0  0  0  0  0  0  0  0  0  0  0  0
    0.6167   -3.8167    0.0000 C   0  0  0  0  0  0  0  0  0  0  0  0
    0.6292   -5.7167    0.0000 C   0  0  0  0  0  0  0  0  0  0  0  0
    1.5542   -6.8125    0.0000 C   0  0  0  0  0  0  0  0  0  0  0  0
    0.7667   -6.5292    0.0000 C   0  0  0  0  0  0  0  0  0  0  0  0
  2  3  1  0
  3  1  1  0
  4  5  1  0
  5  1  1  0
  6  1  1  0
  7  6  1  0
  8  2  1  0
  9  2  1  0
 10  3  2  0
 11  4  2  0
 12  5  2  0
 13  7  1  0
 14  7  1  0
 15  8  1  0
 16  9  1  0
 17 18  2  0
 18 12  1  0
 19 14  1  0
 20 13  1  0
 21 19  1  0
  2  4  1  0
 11 17  1  0
 15 16  1  0
 21 20  1  0
M  END

> <chembl_id>
CHEMBL6464

> <chembl_pref_name>
None

$$$$

     RDKit          2D

 13 14  0  0  1  0  0  0  0  0999 V2000
    0.4868   -1.4892    0.0000 O   0  0  0  0  0  0  0  0  0  0  0  0
    0.4868   -0.1609    0.0000 O   0  0  0  0  0  0  0  0  0  0  0  0
    4.1251   -2.8876    0.0000 N   0  0  0  0  0  0  0  0  0  0  0  0
    1.2705   -1.2417    0.0000 C   0  0  0  0  0  0  0  0  0  0  0  0
    1.2705   -0.4167    0.0000 C   0  0  0  0  0  0  0  0  0  0  0  0
    2.6978   -1.2417    0.0000 C   0  0  0  0  0  0  0  0  0  0  0  0
    1.9841   -1.6500    0.0000 C   0  0  0  0  0  0  0  0  0  0  0  0
    1.9841    0.0000    0.0000 C   0  0  0  0  0  0  0  0  0  0  0  0
    2.6978   -0.4167    0.0000 C   0  0  0  0  0  0  0  0  0  0  0  0
    0.0000   -0.8250    0.0000 C   0  0  0  0  0  0  0  0  0  0  0  0
    3.4114   -1.6500    0.0000 C   0  0  0  0  0  0  0  0  0  0  0  0
    3.4114   -2.4709    0.0000 C   0  0  0  0  0  0  0  0  0  0  0  0
    2.6978   -2.8876    0.0000 C   0  0  0  0  0  0  0  0  0  0  0  0
  1  4  1  0
  1 10  1  0
  2  5  1  0
  2 10  1  0
  3 12  1  0
  4  5  2  0
  4  7  1  0
  5  8  1  0
  6  7  2  0
  6  9  1  0
  6 11  1  0
  8  9  2  0
 11 12  1  0
 12 13  1  0
M  END

> <chembl_id>
CHEMBL6731

> <chembl_pref_name>
TENAMFETAMINE

$$$$

     RDKit          2D

 17 18  0  0  0  0  0  0  0  0999 V2000
    2.8542   -2.7000    0.0000 N   0  0  0  0  0  0  0  0  0  0  0  0
    3.5667   -2.2917    0.0000 C   0  0  0  0  0  0  0  0  0  0  0  0
    3.5667   -1.4667    0.0000 N   0  0  0  0  0  0  0  0  0  0  0  0
    2.8542   -3.5250    0.0000 C   0  0  0  0  0  0  0  0  0  0  0  0
    2.1500   -2.2917    0.0000 C   0  0  0  0  0  0  0  0  0  0  0  0
    2.1500   -1.4667    0.0000 C   0  0  0  0  0  0  0  0  0  0  0  0
    2.8542   -1.0500    0.0000 C   0  0  0  0  0  0  0  0  0  0  0  0
    2.1917   -3.0375    0.0000 O   0  0  0  0  0  0  0  0  0  0  0  0
    2.6042   -4.3042    0.0000 C   0  0  0  0  0  0  0  0  0  0  0  0
    1.5250   -3.5250    0.0000 C   0  0  0  0  0  0  0  0  0  0  0  0
    1.7792   -4.3042    0.0000 C   0  0  0  0  0  0  0  0  0  0  0  0
    4.2875   -2.7042    0.0000 O   0  0  0  0  0  0  0  0  0  0  0  0
    2.8542   -0.2167    0.0000 O   0  0  0  0  0  0  0  0  0  0  0  0
    1.4292   -1.0542    0.0000 I   0  0  0  0  0  0  0  0  0  0  0  0
    1.2917   -4.9750    0.0000 O   0  0  0  0  0  0  0  0  0  0  0  0
    0.7417   -3.2667    0.0000 C   0  0  0  0  0  0  0  0  0  0  0  0
    0.5667   -2.4625    0.0000 O   0  0  0  0  0  0  0  0  0  0  0  0
  2  1  1  0
  3  2  1  0
  4  1  1  0
  5  1  1  0
  6  5  2  0
  7  6  1  0
  8  4  1  0
  9  4  1  0
 10  8  1  0
 11  9  1  0
 12  2  2  0
 13  7  2  0
 14  6  1  0
 15 11  1  0
 16 10  1  0
 17 16  1  0
  7  3  1  0
 11 10  1  0
M  END

> <chembl_id>
CHEMBL268690

> <chembl_pref_name>
None

$$$$

     RDKit          2D

 17 18  0  0  0  0  0  0  0  0999 V2000
    3.4167   -8.6042    0.0000 N   0  0  0  0  0  0  0  0  0  0  0  0
    4.2375   -8.5167    0.0000 C   0  0  0  0  0  0  0  0  0  0  0  0
    4.7208   -9.1833    0.0000 N   0  0  0  0  0  0  0  0  0  0  0  0
    2.9333   -7.9375    0.0000 C   0  0  0  0  0  0  0  0  0  0  0  0
    3.0833   -9.3583    0.0000 C   0  0  0  0  0  0  0  0  0  0  0  0
    3.5667  -10.0250    0.0000 C   0  0  0  0  0  0  0  0  0  0  0  0
    4.3875   -9.9375    0.0000 C   0  0  0  0  0  0  0  0  0  0  0  0
    3.1875   -7.1500    0.0000 O   0  0  0  0  0  0  0  0  0  0  0  0
    2.1083   -7.9375    0.0000 C   0  0  0  0  0  0  0  0  0  0  0  0
    2.5208   -6.6667    0.0000 C   0  0  0  0  0  0  0  0  0  0  0  0
    1.8542   -7.1500    0.0000 C   0  0  0  0  0  0  0  0  0  0  0  0
    4.5750   -7.7625    0.0000 O   0  0  0  0  0  0  0  0  0  0  0  0
    4.8708  -10.6042    0.0000 O   0  0  0  0  0  0  0  0  0  0  0  0
    3.2292  -10.7792    0.0000 C   0  0  0  0  0  0  0  0  0  0  0  0
    1.0667   -6.8958    0.0000 O   0  0  0  0  0  0  0  0  0  0  0  0
    2.5208   -5.8417    0.0000 C   0  0  0  0  0  0  0  0  0  0  0  0
    1.8042   -5.4292    0.0000 O   0  0  0  0  0  0  0  0  0  0  0  0
 10  8  1  0
 11  9  1  0
 12  2  2  0
 13  7  2  0
 14  6  1  0
 15 11  1  0
 16 10  1  0
 17 16  1  0
  7  3  1  0
 11 10  1  0
  2  1  1  0
  3  2  1  0
  4  1  1  0
  5  1  1  0
  6  5  2  0
  7  6  1  0
  8  4  1  0
  9  4  1  0
M  END

> <chembl_id>
CHEMBL6497

> <chembl_pref_name>
None

$$$$

     RDKit          2D

 21 23  0  0  0  0  0  0  0  0999 V2000
    1.4292   -5.1042    0.0000 N   0  0  0  0  0  0  0  0  0  0  0  0
    2.1417   -3.8667    0.0000 N   0  0  0  0  0  0  0  0  0  0  0  0
    2.8625   -5.1042    0.0000 C   0  0  0  0  0  0  0  0  0  0  0  0
    2.8625   -4.2792    0.0000 C   0  0  0  0  0  0  0  0  0  0  0  0
    2.1417   -5.5167    0.0000 C   0  0  0  0  0  0  0  0  0  0  0  0
    1.4292   -4.2792    0.0000 C   0  0  0  0  0  0  0  0  0  0  0  0
    3.5792   -5.5167    0.0000 N   0  0  0  0  0  0  0  0  0  0  0  0
    3.5667   -3.8625    0.0000 N   0  0  0  0  0  0  0  0  0  0  0  0
    4.2917   -5.1000    0.0000 C   0  0  0  0  0  0  0  0  0  0  0  0
    6.4250   -3.8542    0.0000 C   0  0  0  0  0  0  0  0  0  0  0  0
    5.7125   -4.2750    0.0000 C   0  0  0  0  0  0  0  0  0  0  0  0
    5.0042   -5.5042    0.0000 S   0  0  0  0  0  0  0  0  0  0  0  0
    5.7167   -5.0917    0.0000 C   0  0  0  0  0  0  0  0  0  0  0  0
    7.1417   -4.2667    0.0000 C   0  0  0  0  0  0  0  0  0  0  0  0
    4.2875   -4.2667    0.0000 C   0  0  0  0  0  0  0  0  0  0  0  0
    2.1500   -6.3417    0.0000 N   0  0  0  0  0  0  0  0  0  0  0  0
    0.7167   -3.8667    0.0000 N   0  0  0  0  0  0  0  0  0  0  0  0
    7.1417   -5.0917    0.0000 C   0  0  0  0  0  0  0  0  0  0  0  0
    6.4167   -3.0292    0.0000 Cl  0  0  0  0  0  0  0  0  0  0  0  0
    6.4292   -5.5042    0.0000 C   0  0  0  0  0  0  0  0  0  0  0  0
    7.8542   -3.8542    0.0000 Cl  0  0  0  0  0  0  0  0  0  0  0  0
  2  6  1  0
  3  5  2  0
  4  2  2  0
  5  1  1  0
  6  1  2  0
  7  3  1  0
  8  4  1  0
  9  7  2  0
 10 11  2  0
 11 13  1  0
 12  9  1  0
 13 12  1  0
 14 18  2  0
 15  8  2  0
 16  5  1  0
 17  6  1  0
 18 20  1  0
 19 10  1  0
 20 13  2  0
 21 14  1  0
  3  4  1  0
  9 15  1  0
 10 14  1  0
M  END

> <chembl_id>
CHEMBL6544

> <chembl_pref_name>
None

$$$$

     RDKit          2D

 23 25  0  0  0  0  0  0  0  0999 V2000
    4.5000   -4.0917    0.0000 S   0  0  0  0  0  0  0  0  0  0  0  0
    5.2042   -4.5042    0.0000 N   0  0  0  0  0  0  0  0  0  0  0  0
    4.5000   -3.2667    0.0000 C   0  0  0  0  0  0  0  0  0  0  0  0
    5.9292   -4.0792    0.0000 C   0  0  0  0  0  0  0  0  0  0  0  0
    3.7667   -2.8542    0.0000 C   0  0  0  0  0  0  0  0  0  0  0  0
    3.7667   -2.0250    0.0000 C   0  0  0  0  0  0  0  0  0  0  0  0
    3.0542   -1.6042    0.0000 C   0  0  0  0  0  0  0  0  0  0  0  0
    3.6667   -4.0792    0.0000 O   0  0  0  0  0  0  0  0  0  0  0  0
    4.4917   -4.9250    0.0000 O   0  0  0  0  0  0  0  0  0  0  0  0
    5.9167   -3.2542    0.0000 N   0  0  0  0  0  0  0  0  0  0  0  0
    6.6417   -4.5000    0.0000 N   0  0  0  0  0  0  0  0  0  0  0  0
    3.0542   -0.7792    0.0000 N   0  0  0  0  0  0  0  0  0  0  0  0
    5.2042   -2.8500    0.0000 C   0  0  0  0  0  0  0  0  0  0  0  0
    3.0542   -3.2667    0.0000 C   0  0  0  0  0  0  0  0  0  0  0  0
    4.4917   -1.6042    0.0000 C   0  0  0  0  0  0  0  0  0  0  0  0
    2.3417   -2.0250    0.0000 C   0  0  0  0  0  0  0  0  0  0  0  0
    7.3542   -3.2417    0.0000 C   0  0  0  0  0  0  0  0  0  0  0  0
    7.3542   -4.0792    0.0000 C   0  0  0  0  0  0  0  0  0  0  0  0
    6.6417   -2.8375    0.0000 C   0  0  0  0  0  0  0  0  0  0  0  0
    2.3417   -2.8542    0.0000 C   0  0  0  0  0  0  0  0  0  0  0  0
    5.2042   -2.0167    0.0000 C   0  0  0  0  0  0  0  0  0  0  0  0
    3.7667   -0.3542    0.0000 C   0  0  0  0  0  0  0  0  0  0  0  0
    2.3375   -0.3625    0.0000 C   0  0  0  0  0  0  0  0  0  0  0  0
  2  1  1  0
  3  1  1  0
  4  2  1  0
  5  3  1  0
  6  5  2  0
  7  6  1  0
  8  1  2  0
  9  1  2  0
 10  4  2  0
 11  4  1  0
 12  7  1  0
 13  3  2  0
 14  5  1  0
 15 21  2  0
 16 20  1  0
 17 18  1  0
 18 11  2  0
 19 10  1  0
 20 14  2  0
 21 13  1  0
 22 12  1  0
 23 12  1  0
 15  6  1  0
 17 19  2  0
 16  7  2  0
M  END

> <chembl_id>
CHEMBL6468

> <chembl_pref_name>
None

$$$$

     RDKit          2D

 35 37  0  0  1  0  0  0  0  0999 V2000
   -3.8125   -2.8417    0.0000 C   0  0  0  0  0  0  0  0  0  0  0  0
   -3.1083   -3.2542    0.0000 C   0  0  0  0  0  0  0  0  0  0  0  0
   -4.5333   -3.2417    0.0000 N   0  0  0  0  0  0  0  0  0  0  0  0
   -3.8208   -4.4792    0.0000 N   0  0  0  0  0  0  0  0  0  0  0  0
   -3.1083   -4.0667    0.0000 C   0  0  0  0  0  0  0  0  0  0  0  0
   -4.5333   -4.0667    0.0000 C   0  0  0  0  0  0  0  0  0  0  0  0
    2.6000   -1.5792    0.0000 C   0  0  0  0  0  0  0  0  0  0  0  0
    3.3125   -1.9875    0.0000 N   0  0  0  0  0  0  0  0  0  0  0  0
    4.7417   -1.9792    0.0000 C   0  0  0  0  0  0  0  0  0  0  0  0
   -0.2500   -3.2375    0.0000 N   0  0  0  0  0  0  0  0  0  0  0  0
    0.4417   -4.5042    0.0000 C   0  0  0  0  0  0  0  0  0  0  0  0
    4.0250   -1.5750    0.0000 C   0  0  0  0  0  0  0  0  0  0  0  0
    1.1500   -4.9500    0.0000 C   0  0  0  0  0  0  0  0  0  0  0  0
   -2.3958   -2.8292    0.0000 C   0  0  0  0  0  0  0  0  0  0  0  0
    1.8875   -1.9917    0.0000 C   0  0  0  0  0  0  0  0  0  0  0  0
    4.7292    0.4958    0.0000 C   0  0  0  0  0  0  0  0  0  0  0  0
    0.4625   -2.8250    0.0000 C   0  0  0  0  0  0  0  0  0  0  0  0
   -3.8083   -2.0167    0.0000 O   0  0  0  0  0  0  0  0  0  0  0  0
   -0.9708   -2.8292    0.0000 C   0  0  0  0  0  0  0  0  0  0  0  0
    2.5917   -0.7542    0.0000 O   0  0  0  0  0  0  0  0  0  0  0  0
   -1.6833   -3.2417    0.0000 C   0  0  0  0  0  0  0  0  0  0  0  0
    4.7417   -2.8042    0.0000 O   0  0  0  0  0  0  0  0  0  0  0  0
   -2.3958   -4.4875    0.0000 C   0  0  0  0  0  0  0  0  0  0  0  0
    4.0125    0.9000    0.0000 O   0  0  0  0  0  0  0  0  0  0  0  0
    1.8875   -2.8167    0.0000 C   0  0  0  0  0  0  0  0  0  0  0  0
    1.1667   -1.5875    0.0000 C   0  0  0  0  0  0  0  0  0  0  0  0
    1.1750   -3.2375    0.0000 C   0  0  0  0  0  0  0  0  0  0  0  0
    0.4542   -2.0042    0.0000 C   0  0  0  0  0  0  0  0  0  0  0  0
    4.0167   -0.7500    0.0000 C   0  0  0  0  0  0  0  0  0  0  0  0
    4.7292   -0.3292    0.0000 C   0  0  0  0  0  0  0  0  0  0  0  0
   -0.2500   -4.0625    0.0000 C   0  0  0  0  0  0  0  0  0  0  0  0
    5.4542   -1.5667    0.0000 O   0  0  0  0  0  0  0  0  0  0  0  0
   -1.6833   -4.0667    0.0000 C   0  0  0  0  0  0  0  0  0  0  0  0
    5.4417    0.9083    0.0000 O   0  0  0  0  0  0  0  0  0  0  0  0
   -5.2458   -4.4750    0.0000 C   0  0  0  0  0  0  0  0  0  0  0  0
  2  1  1  0
  3  1  2  0
  4  6  2  0
  5  2  2  0
  6  3  1  0
  7 15  1  0
  8  7  1  0
  9 12  1  0
 10 19  1  0
 11 31  1  0
 12  8  1  0
 13 11  3  0
 14  2  1  0
 15 26  1  0
 16 30  1  0
 17 10  1  0
 18  1  1  0
 19 21  1  0
 20  7  2  0
 21 14  2  0
 22  9  2  0
 23  5  1  0
 24 16  2  0
 25 27  1  0
 26 28  2  0
 27 17  2  0
 28 17  1  0
 12 29  1  6
 30 29  1  0
 31 10  1  0
 32  9  1  0
 33 21  1  0
 34 16  1  0
 35  6  1  0
  4  5  1  0
 33 23  2  0
 15 25  2  0
M  END

> <chembl_id>
CHEMBL6676

> <chembl_pref_name>
None

$$$$

     RDKit          2D

 23 25  0  0  0  0  0  0  0  0999 V2000
    4.5042   -4.0917    0.0000 S   0  0  0  0  0  0  0  0  0  0  0  0
    5.2125   -4.5042    0.0000 N   0  0  0  0  0  0  0  0  0  0  0  0
    4.5042   -3.2667    0.0000 C   0  0  0  0  0  0  0  0  0  0  0  0
    3.7792   -2.8500    0.0000 C   0  0  0  0  0  0  0  0  0  0  0  0
    3.7792   -2.0167    0.0000 C   0  0  0  0  0  0  0  0  0  0  0  0
    3.0542   -1.6042    0.0000 C   0  0  0  0  0  0  0  0  0  0  0  0
    3.6667   -4.0917    0.0000 O   0  0  0  0  0  0  0  0  0  0  0  0
    4.4917   -4.9250    0.0000 O   0  0  0  0  0  0  0  0  0  0  0  0
    5.9292   -4.0917    0.0000 C   0  0  0  0  0  0  0  0  0  0  0  0
    3.0542   -0.7667    0.0000 N   0  0  0  0  0  0  0  0  0  0  0  0
    5.9167   -3.2542    0.0000 N   0  0  0  0  0  0  0  0  0  0  0  0
    5.2167   -2.8500    0.0000 C   0  0  0  0  0  0  0  0  0  0  0  0
    4.4917   -1.6042    0.0000 C   0  0  0  0  0  0  0  0  0  0  0  0
    3.0542   -3.2667    0.0000 C   0  0  0  0  0  0  0  0  0  0  0  0
    2.3417   -2.0167    0.0000 C   0  0  0  0  0  0  0  0  0  0  0  0
    2.3417   -2.8500    0.0000 C   0  0  0  0  0  0  0  0  0  0  0  0
    5.2167   -2.0167    0.0000 C   0  0  0  0  0  0  0  0  0  0  0  0
    6.6375   -2.8292    0.0000 C   0  0  0  0  0  0  0  0  0  0  0  0
    2.3375   -0.3542    0.0000 C   0  0  0  0  0  0  0  0  0  0  0  0
    3.7792   -0.3542    0.0000 C   0  0  0  0  0  0  0  0  0  0  0  0
    6.6542   -4.4917    0.0000 C   0  0  0  0  0  0  0  0  0  0  0  0
    7.3625   -3.2417    0.0000 C   0  0  0  0  0  0  0  0  0  0  0  0
    7.3625   -4.0792    0.0000 C   0  0  0  0  0  0  0  0  0  0  0  0
  2  1  1  0
  3  1  1  0
  4  3  1  0
  5  4  2  0
  6  5  1  0
  7  1  2  0
  8  1  2  0
  9  2  1  0
 10  6  1  0
 11  9  2  0
 12  3  2  0
 13 17  2  0
 14  4  1  0
 15 16  1  0
 16 14  2  0
 17 12  1  0
 18 11  1  0
 19 10  1  0
 20 10  1  0
 21  9  1  0
 22 23  1  0
 23 21  2  0
 13  5  1  0
 15  6  2  0
 22 18  2  0
M  END

> <chembl_id>
CHEMBL268855

> <chembl_pref_name>
None

$$$$

     RDKit          2D

 32 34  0  0  0  0  0  0  0  0999 V2000
    3.5042   -4.0292    0.0000 C   0  0  0  0  0  0  0  0  0  0  0  0
    2.8125   -3.6125    0.0000 C   0  0  0  0  0  0  0  0  0  0  0  0
    4.2292   -3.6375    0.0000 C   0  0  0  0  0  0  0  0  0  0  0  0
    3.4917   -4.8542    0.0000 C   0  0  0  0  0  0  0  0  0  0  0  0
    2.8250   -2.7792    0.0000 C   0  0  0  0  0  0  0  0  0  0  0  0
    4.2417   -2.8250    0.0000 C   0  0  0  0  0  0  0  0  0  0  0  0
    4.9375   -4.0667    0.0000 C   0  0  0  0  0  0  0  0  0  0  0  0
    2.7667   -5.2542    0.0000 C   0  0  0  0  0  0  0  0  0  0  0  0
    4.1917   -5.2792    0.0000 C   0  0  0  0  0  0  0  0  0  0  0  0
    3.4625   -6.5042    0.0000 C   0  0  0  0  0  0  0  0  0  0  0  0
   10.6375   -2.4667    0.0000 N   0  0  0  0  0  0  0  0  0  0  0  0
    5.6667   -2.8500    0.0000 C   0  0  0  0  0  0  0  0  0  0  0  0
    2.7542   -6.0750    0.0000 C   0  0  0  0  0  0  0  0  0  0  0  0
    4.1792   -6.1042    0.0000 C   0  0  0  0  0  0  0  0  0  0  0  0
    5.6625   -3.6667    0.0000 C   0  0  0  0  0  0  0  0  0  0  0  0
    4.9667   -2.4250    0.0000 C   0  0  0  0  0  0  0  0  0  0  0  0
    3.4500   -7.3375    0.0000 I   0  0  0  0  0  0  0  0  0  0  0  0
    2.0875   -4.0042    0.0000 C   0  0  0  0  0  0  0  0  0  0  0  0
    6.3792   -2.4542    0.0000 O   0  0  0  0  0  0  0  0  0  0  0  0
    2.1167   -2.3417    0.0000 C   0  0  0  0  0  0  0  0  0  0  0  0
    3.5417   -2.3875    0.0000 C   0  0  0  0  0  0  0  0  0  0  0  0
    9.9250   -2.8875    0.0000 C   0  0  0  0  0  0  0  0  0  0  0  0
   11.3417   -2.8750    0.0000 C   0  0  0  0  0  0  0  0  0  0  0  0
   10.6292   -1.6417    0.0000 C   0  0  0  0  0  0  0  0  0  0  0  0
    7.0792   -2.8667    0.0000 C   0  0  0  0  0  0  0  0  0  0  0  0
    2.0667   -4.8167    0.0000 C   0  0  0  0  0  0  0  0  0  0  0  0
    9.2167   -2.4750    0.0000 C   0  0  0  0  0  0  0  0  0  0  0  0
    7.8042   -2.4667    0.0000 C   0  0  0  0  0  0  0  0  0  0  0  0
    8.5042   -2.8792    0.0000 C   0  0  0  0  0  0  0  0  0  0  0  0
    2.1292   -1.5292    0.0000 C   0  0  0  0  0  0  0  0  0  0  0  0
    3.5667   -1.5625    0.0000 C   0  0  0  0  0  0  0  0  0  0  0  0
    2.8625   -1.1292    0.0000 C   0  0  0  0  0  0  0  0  0  0  0  0
  2  1  2  0
  3  1  1  0
  4  1  1  0
  5  2  1  0
  6  3  1  0
  7  3  2  0
  8  4  2  0
  9  4  1  0
 10 14  1  0
 11 22  1  0
 12 15  2  0
 13  8  1  0
 14  9  2  0
 15  7  1  0
 16  6  2  0
 17 10  1  0
 18  2  1  0
 19 12  1  0
 20  5  2  0
 21  5  1  0
 22 27  1  0
 23 11  1  0
 24 11  1  0
 25 19  1  0
 26 18  1  0
 27 29  1  0
 28 25  1  0
 29 28  1  0
 30 20  1  0
 31 21  2  0
 32 31  1  0
 10 13  2  0
 12 16  1  0
 30 32  2  0
M  END

> <chembl_id>
CHEMBL6327

> <chembl_pref_name>
None

$$$$

     RDKit          2D

 25 28  0  0  0  0  0  0  0  0999 V2000
    3.0158  -23.9667    0.0000 C   0  0  0  0  0  0  0  0  0  0  0  0
    3.0146  -24.7924    0.0000 C   0  0  0  0  0  0  0  0  0  0  0  0
    3.7256  -23.5527    0.0000 C   0  0  0  0  0  0  0  0  0  0  0  0
    4.4389  -23.9631    0.0000 C   0  0  0  0  0  0  0  0  0  0  0  0
    5.8653  -24.7919    0.0000 C   0  0  0  0  0  0  0  0  0  0  0  0
    5.1510  -23.5463    0.0000 C   0  0  0  0  0  0  0  0  0  0  0  0
    5.8623  -23.9668    0.0000 C   0  0  0  0  0  0  0  0  0  0  0  0
    6.5760  -23.5597    0.0000 N   0  0  0  0  0  0  0  0  0  0  0  0
    6.5847  -22.7347    0.0000 C   0  0  0  0  0  0  0  0  0  0  0  0
    5.8734  -22.3185    0.0000 C   0  0  0  0  0  0  0  0  0  0  0  0
    5.1535  -22.7230    0.0000 C   0  0  0  0  0  0  0  0  0  0  0  0
    5.8807  -21.4952    0.0000 C   0  0  0  0  0  0  0  0  0  0  0  0
    6.5966  -21.0877    0.0000 N   0  0  0  0  0  0  0  0  0  0  0  0
    5.1719  -21.0752    0.0000 O   0  0  0  0  0  0  0  0  0  0  0  0
    7.2888  -23.9800    0.0000 C   0  0  0  0  0  0  0  0  0  0  0  0
    5.8548  -23.1435    0.0000 H   0  0  0  0  0  0  0  0  0  0  0  0
    4.4377  -24.7899    0.0000 C   0  0  0  0  0  0  0  0  0  0  0  0
    3.7286  -25.2050    0.0000 C   0  0  0  0  0  0  0  0  0  0  0  0
    3.9071  -26.0088    0.0000 N   0  0  0  0  0  0  0  0  0  0  0  0
    4.7264  -26.0888    0.0000 C   0  0  0  0  0  0  0  0  0  0  0  0
    5.1488  -25.2008    0.0000 C   0  0  0  0  0  0  0  0  0  0  0  0
    7.3106  -21.5060    0.0000 C   0  0  0  0  0  0  0  0  0  0  0  0
    8.0299  -21.0967    0.0000 C   0  0  0  0  0  0  0  0  0  0  0  0
    6.6018  -20.2603    0.0000 C   0  0  0  0  0  0  0  0  0  0  0  0
    7.3210  -19.8511    0.0000 C   0  0  0  0  0  0  0  0  0  0  0  0
 12 13  1  0
  5  7  1  0
 12 14  2  0
  6  7  1  0
  8 15  1  0
  7 16  1  1
 17 18  2  0
  4  3  2  0
  3  1  1  0
  4 17  1  0
  1  2  2  0
  2 18  1  0
 18 19  1  0
 19 20  1  0
 20 21  2  0
 21 17  1  0
  6 11  2  0
  7  8  1  0
 13 22  1  0
  8  9  1  0
 22 23  1  0
  9 10  1  0
 13 24  1  0
 10 11  1  0
 24 25  1  0
  4  6  1  0
 10 12  1  1
 21  5  1  0
M  END

> <chembl_id>
CHEMBL263881

> <chembl_pref_name>
LYSERGIDE

$$$$

     RDKit          2D

 37 40  0  0  1  0  0  0  0  0999 V2000
   -4.8125   -1.7042    0.0000 C   0  0  0  0  0  0  0  0  0  0  0  0
   -4.1083   -2.1167    0.0000 C   0  0  0  0  0  0  0  0  0  0  0  0
   -5.5333   -2.1042    0.0000 N   0  0  0  0  0  0  0  0  0  0  0  0
   -4.8208   -3.3417    0.0000 N   0  0  0  0  0  0  0  0  0  0  0  0
   -4.1083   -2.9375    0.0000 C   0  0  0  0  0  0  0  0  0  0  0  0
   -5.5333   -2.9292    0.0000 C   0  0  0  0  0  0  0  0  0  0  0  0
    1.6000   -0.4417    0.0000 C   0  0  0  0  0  0  0  0  0  0  0  0
    2.3125   -0.8500    0.0000 N   0  0  0  0  0  0  0  0  0  0  0  0
    3.0250   -0.4375    0.0000 C   0  0  0  0  0  0  0  0  0  0  0  0
    3.7417   -0.8417    0.0000 C   0  0  0  0  0  0  0  0  0  0  0  0
   -1.2500   -2.1000    0.0000 N   0  0  0  0  0  0  0  0  0  0  0  0
   -0.5583   -3.3667    0.0000 C   0  0  0  0  0  0  0  0  0  0  0  0
    0.1500   -3.8125    0.0000 C   0  0  0  0  0  0  0  0  0  0  0  0
   -3.3958   -1.6917    0.0000 C   0  0  0  0  0  0  0  0  0  0  0  0
    0.8875   -0.8542    0.0000 C   0  0  0  0  0  0  0  0  0  0  0  0
   -0.5375   -1.6875    0.0000 C   0  0  0  0  0  0  0  0  0  0  0  0
   -4.8083   -0.8792    0.0000 O   0  0  0  0  0  0  0  0  0  0  0  0
   -1.9708   -1.6917    0.0000 C   0  0  0  0  0  0  0  0  0  0  0  0
    1.5917    0.3833    0.0000 O   0  0  0  0  0  0  0  0  0  0  0  0
   -2.6833   -2.1042    0.0000 C   0  0  0  0  0  0  0  0  0  0  0  0
    3.0167    0.3875    0.0000 C   0  0  0  0  0  0  0  0  0  0  0  0
    3.7417   -1.6667    0.0000 O   0  0  0  0  0  0  0  0  0  0  0  0
   -3.3958   -3.3500    0.0000 C   0  0  0  0  0  0  0  0  0  0  0  0
    0.1667   -0.4500    0.0000 C   0  0  0  0  0  0  0  0  0  0  0  0
    0.8875   -1.6792    0.0000 C   0  0  0  0  0  0  0  0  0  0  0  0
   -0.5458   -0.8667    0.0000 C   0  0  0  0  0  0  0  0  0  0  0  0
    0.1750   -2.1000    0.0000 C   0  0  0  0  0  0  0  0  0  0  0  0
   -1.2500   -2.9250    0.0000 C   0  0  0  0  0  0  0  0  0  0  0  0
    4.4542   -0.4292    0.0000 O   0  0  0  0  0  0  0  0  0  0  0  0
   -2.6833   -2.9375    0.0000 C   0  0  0  0  0  0  0  0  0  0  0  0
    3.7292    0.8083    0.0000 C   0  0  0  0  0  0  0  0  0  0  0  0
   -6.2417   -3.3375    0.0000 C   0  0  0  0  0  0  0  0  0  0  0  0
    4.4500    0.3958    0.0000 C   0  0  0  0  0  0  0  0  0  0  0  0
    3.7292    1.6250    0.0000 C   0  0  0  0  0  0  0  0  0  0  0  0
    4.4375    2.0458    0.0000 C   0  0  0  0  0  0  0  0  0  0  0  0
    5.1625    0.8083    0.0000 C   0  0  0  0  0  0  0  0  0  0  0  0
    5.1542    1.6375    0.0000 C   0  0  0  0  0  0  0  0  0  0  0  0
  2  1  1  0
  3  1  2  0
  4  6  2  0
  5  2  2  0
  6  3  1  0
  7 15  1  0
  8  7  1  0
  9  8  1  0
 10  9  1  0
 11 18  1  0
 12 28  1  0
 13 12  3  0
 14  2  1  0
 15 25  2  0
 16 11  1  0
 17  1  1  0
 18 20  1  0
 19  7  2  0
 20 14  2  0
  9 21  1  6
 22 10  2  0
 23  5  1  0
 24 26  2  0
 25 27  1  0
 26 16  1  0
 27 16  2  0
 28 11  1  0
 29 10  1  0
 30 20  1  0
 31 21  1  0
 32  6  1  0
 33 31  2  0
 34 31  1  0
 35 34  2  0
 36 33  1  0
 37 35  1  0
  4  5  1  0
 30 23  2  0
 24 15  1  0
 37 36  2  0
M  END

> <chembl_id>
CHEMBL415104

> <chembl_pref_name>
None

$$$$

     RDKit          2D

 41 44  0  0  1  0  0  0  0  0999 V2000
    1.4167   -4.5667    0.0000 C   0  0  0  0  0  0  0  0  0  0  0  0
    0.7167   -4.1542    0.0000 C   0  0  0  0  0  0  0  0  0  0  0  0
    1.4167   -5.3917    0.0000 C   0  0  0  0  0  0  0  0  0  0  0  0
   -0.0083   -4.5625    0.0000 N   0  0  0  0  0  0  0  0  0  0  0  0
    0.7042   -5.8000    0.0000 N   0  0  0  0  0  0  0  0  0  0  0  0
    9.9542   -0.4167    0.0000 N   0  0  0  0  0  0  0  0  0  0  0  0
    7.1167   -2.8917    0.0000 C   0  0  0  0  0  0  0  0  0  0  0  0
    6.4042   -3.3125    0.0000 C   0  0  0  0  0  0  0  0  0  0  0  0
    7.8292   -3.3042    0.0000 N   0  0  0  0  0  0  0  0  0  0  0  0
   -0.0083   -5.3792    0.0000 C   0  0  0  0  0  0  0  0  0  0  0  0
    2.1292   -4.1500    0.0000 C   0  0  0  0  0  0  0  0  0  0  0  0
    8.5417   -2.8917    0.0000 C   0  0  0  0  0  0  0  0  0  0  0  0
    5.6875   -2.9042    0.0000 C   0  0  0  0  0  0  0  0  0  0  0  0
    2.8375   -4.5625    0.0000 C   0  0  0  0  0  0  0  0  0  0  0  0
    4.9750   -3.3167    0.0000 C   0  0  0  0  0  0  0  0  0  0  0  0
    9.2417   -0.8292    0.0000 C   0  0  0  0  0  0  0  0  0  0  0  0
    9.2625   -3.2917    0.0000 C   0  0  0  0  0  0  0  0  0  0  0  0
    8.5375   -2.0667    0.0000 C   0  0  0  0  0  0  0  0  0  0  0  0
    4.9792   -4.1417    0.0000 C   0  0  0  0  0  0  0  0  0  0  0  0
    4.2667   -4.5542    0.0000 N   0  0  0  0  0  0  0  0  0  0  0  0
    2.1292   -5.8042    0.0000 C   0  0  0  0  0  0  0  0  0  0  0  0
    3.5500   -4.1417    0.0000 C   0  0  0  0  0  0  0  0  0  0  0  0
    6.4042   -4.1292    0.0000 C   0  0  0  0  0  0  0  0  0  0  0  0
    2.8375   -5.3917    0.0000 C   0  0  0  0  0  0  0  0  0  0  0  0
    9.2500   -1.6542    0.0000 C   0  0  0  0  0  0  0  0  0  0  0  0
    4.9625   -5.8167    0.0000 C   0  0  0  0  0  0  0  0  0  0  0  0
    5.6667   -6.2667    0.0000 C   0  0  0  0  0  0  0  0  0  0  0  0
   10.6750   -0.8250    0.0000 O   0  0  0  0  0  0  0  0  0  0  0  0
    9.9500    0.4083    0.0000 O   0  0  0  0  0  0  0  0  0  0  0  0
    0.7167   -3.3292    0.0000 O   0  0  0  0  0  0  0  0  0  0  0  0
    7.1125   -2.0667    0.0000 O   0  0  0  0  0  0  0  0  0  0  0  0
    5.6917   -4.5542    0.0000 C   0  0  0  0  0  0  0  0  0  0  0  0
    9.9750   -2.8792    0.0000 O   0  0  0  0  0  0  0  0  0  0  0  0
    5.6750   -2.0792    0.0000 F   0  0  0  0  0  0  0  0  0  0  0  0
    4.2667   -5.3792    0.0000 C   0  0  0  0  0  0  0  0  0  0  0  0
    9.2667   -4.1167    0.0000 O   0  0  0  0  0  0  0  0  0  0  0  0
   -0.7208   -5.7917    0.0000 C   0  0  0  0  0  0  0  0  0  0  0  0
    7.8250   -1.6667    0.0000 C   0  0  0  0  0  0  0  0  0  0  0  0
    8.5292   -0.4292    0.0000 C   0  0  0  0  0  0  0  0  0  0  0  0
    7.8167   -0.8500    0.0000 C   0  0  0  0  0  0  0  0  0  0  0  0
    3.5542   -5.8042    0.0000 C   0  0  0  0  0  0  0  0  0  0  0  0
  2  1  1  0
  3  1  2  0
  4  2  2  0
  5  3  1  0
  6 16  1  0
  7  8  1  0
  8 23  2  0
  9  7  1  0
 10  5  2  0
 11  1  1  0
 12  9  1  0
 13 15  2  0
 14 11  2  0
 15 19  1  0
 16 25  1  0
 17 12  1  0
 12 18  1  6
 19 20  1  0
 20 22  1  0
 21  3  1  0
 22 14  1  0
 23 32  1  0
 24 14  1  0
 25 18  2  0
 26 35  1  0
 27 26  3  0
 28  6  1  0
 29  6  2  0
 30  2  1  0
 31  7  2  0
 32 19  2  0
 33 17  2  0
 34 13  1  0
 35 20  1  0
 36 17  1  0
 37 10  1  0
 38 18  1  0
 39 40  1  0
 40 38  2  0
 41 24  1  0
 24 21  2  0
 10  4  1  0
 13  8  1  0
 39 16  2  0
M  CHG  2   6   1  28  -1
M  END

> <chembl_id>
CHEMBL6271

> <chembl_pref_name>
None

$$$$

     RDKit          2D

 21 23  0  0  0  0  0  0  0  0999 V2000
    1.4292   -5.1042    0.0000 N   0  0  0  0  0  0  0  0  0  0  0  0
    2.1417   -3.8667    0.0000 N   0  0  0  0  0  0  0  0  0  0  0  0
    2.8625   -5.1042    0.0000 C   0  0  0  0  0  0  0  0  0  0  0  0
    2.8625   -4.2792    0.0000 C   0  0  0  0  0  0  0  0  0  0  0  0
    2.1417   -5.5167    0.0000 C   0  0  0  0  0  0  0  0  0  0  0  0
    1.4292   -4.2792    0.0000 C   0  0  0  0  0  0  0  0  0  0  0  0
    3.5792   -5.5167    0.0000 N   0  0  0  0  0  0  0  0  0  0  0  0
    3.5667   -3.8625    0.0000 N   0  0  0  0  0  0  0  0  0  0  0  0
    4.2917   -5.1000    0.0000 C   0  0  0  0  0  0  0  0  0  0  0  0
    5.0042   -5.5042    0.0000 S   0  0  0  0  0  0  0  0  0  0  0  0
    4.2875   -4.2667    0.0000 C   0  0  0  0  0  0  0  0  0  0  0  0
    2.1500   -6.3417    0.0000 N   0  0  0  0  0  0  0  0  0  0  0  0
    0.7167   -3.8667    0.0000 N   0  0  0  0  0  0  0  0  0  0  0  0
    5.7167   -5.0917    0.0000 C   0  0  0  0  0  0  0  0  0  0  0  0
    7.1417   -4.2667    0.0000 C   0  0  0  0  0  0  0  0  0  0  0  0
    6.4292   -5.5042    0.0000 C   0  0  0  0  0  0  0  0  0  0  0  0
    5.7125   -4.2750    0.0000 C   0  0  0  0  0  0  0  0  0  0  0  0
    6.4250   -3.8542    0.0000 C   0  0  0  0  0  0  0  0  0  0  0  0
    7.1417   -5.0917    0.0000 C   0  0  0  0  0  0  0  0  0  0  0  0
    7.8542   -3.8542    0.0000 O   0  0  0  0  0  0  0  0  0  0  0  0
    8.5750   -4.2542    0.0000 C   0  0  0  0  0  0  0  0  0  0  0  0
  2  6  1  0
  3  5  2  0
  4  2  2  0
  5  1  1  0
  6  1  2  0
  7  3  1  0
  8  4  1  0
  9  7  2  0
 10  9  1  0
 11  8  2  0
 12  5  1  0
 13  6  1  0
 14 10  1  0
 15 18  1  0
 16 14  2  0
 17 14  1  0
 18 17  2  0
 19 16  1  0
 20 15  1  0
 21 20  1  0
  3  4  1  0
  9 11  1  0
 19 15  2  0
M  END

> <chembl_id>
CHEMBL6631

> <chembl_pref_name>
None

$$$$

     RDKit          2D

 21 23  0  0  0  0  0  0  0  0999 V2000
    5.6542   -5.9250    0.0000 N   0  0  0  0  0  0  0  0  0  0  0  0
    6.3000   -5.6167    0.0000 C   0  0  0  0  0  0  0  0  0  0  0  0
    5.0167   -5.6042    0.0000 C   0  0  0  0  0  0  0  0  0  0  0  0
    6.4667   -4.9292    0.0000 C   0  0  0  0  0  0  0  0  0  0  0  0
    4.8750   -4.9042    0.0000 C   0  0  0  0  0  0  0  0  0  0  0  0
    6.0417   -4.3792    0.0000 C   0  0  0  0  0  0  0  0  0  0  0  0
    5.3292   -4.3625    0.0000 C   0  0  0  0  0  0  0  0  0  0  0  0
    5.6500   -6.6167    0.0000 C   0  0  0  0  0  0  0  0  0  0  0  0
    5.0250   -6.9667    0.0000 C   0  0  0  0  0  0  0  0  0  0  0  0
    4.3875   -8.0250    0.0000 N   0  0  0  0  0  0  0  0  0  0  0  0
    4.5042   -6.0750    0.0000 C   0  0  0  0  0  0  0  0  0  0  0  0
    6.8167   -6.1125    0.0000 C   0  0  0  0  0  0  0  0  0  0  0  0
    5.0042   -7.6792    0.0000 C   0  0  0  0  0  0  0  0  0  0  0  0
    4.2000   -4.6917    0.0000 C   0  0  0  0  0  0  0  0  0  0  0  0
    7.1542   -4.7292    0.0000 C   0  0  0  0  0  0  0  0  0  0  0  0
    4.3792   -8.7375    0.0000 C   0  0  0  0  0  0  0  0  0  0  0  0
    3.7792   -7.6625    0.0000 C   0  0  0  0  0  0  0  0  0  0  0  0
    3.8250   -5.8542    0.0000 C   0  0  0  0  0  0  0  0  0  0  0  0
    7.4917   -5.9167    0.0000 C   0  0  0  0  0  0  0  0  0  0  0  0
    7.6667   -5.2292    0.0000 C   0  0  0  0  0  0  0  0  0  0  0  0
    3.6750   -5.1542    0.0000 C   0  0  0  0  0  0  0  0  0  0  0  0
  2  1  1  0
  3  1  1  0
  4  2  2  0
  5  3  1  0
  6  4  1  0
  7  5  1  0
  8  1  1  0
  9  8  1  0
 10 13  1  0
 11  3  2  0
 12  2  1  0
 13  9  1  0
 14  5  2  0
 15  4  1  0
 16 10  1  0
 17 10  1  0
 18 11  1  0
 19 12  2  0
 20 19  1  0
 21 18  2  0
  7  6  1  0
 21 14  1  0
 20 15  2  0
M  END

> <chembl_id>
CHEMBL11

> <chembl_pref_name>
IMIPRAMINE

$$$$

     RDKit          2D

 32 35  0  0  0  0  0  0  0  0999 V2000
    1.5875   -3.5542    0.0000 C   0  0  0  0  0  0  0  0  0  0  0  0
    2.2917   -3.9667    0.0000 C   0  0  0  0  0  0  0  0  0  0  0  0
    0.8750   -3.9625    0.0000 N   0  0  0  0  0  0  0  0  0  0  0  0
    1.5792   -5.2000    0.0000 N   0  0  0  0  0  0  0  0  0  0  0  0
    2.2917   -4.7875    0.0000 C   0  0  0  0  0  0  0  0  0  0  0  0
    0.8750   -4.7792    0.0000 C   0  0  0  0  0  0  0  0  0  0  0  0
    8.9917   -0.2000    0.0000 N   0  0  0  0  0  0  0  0  0  0  0  0
    7.9917   -2.2917    0.0000 C   0  0  0  0  0  0  0  0  0  0  0  0
    9.4167   -1.4625    0.0000 C   0  0  0  0  0  0  0  0  0  0  0  0
   10.0917   -0.9750    0.0000 S   0  0  0  0  0  0  0  0  0  0  0  0
    5.1417   -3.9500    0.0000 N   0  0  0  0  0  0  0  0  0  0  0  0
    5.8417   -5.2167    0.0000 C   0  0  0  0  0  0  0  0  0  0  0  0
    8.7042   -2.7000    0.0000 N   0  0  0  0  0  0  0  0  0  0  0  0
    6.5417   -5.6625    0.0000 C   0  0  0  0  0  0  0  0  0  0  0  0
    9.8292   -0.2000    0.0000 C   0  0  0  0  0  0  0  0  0  0  0  0
    2.9917   -3.5500    0.0000 C   0  0  0  0  0  0  0  0  0  0  0  0
    8.7542   -0.9875    0.0000 C   0  0  0  0  0  0  0  0  0  0  0  0
    7.2792   -2.7125    0.0000 C   0  0  0  0  0  0  0  0  0  0  0  0
    5.8542   -3.5375    0.0000 C   0  0  0  0  0  0  0  0  0  0  0  0
    1.6000   -2.7292    0.0000 O   0  0  0  0  0  0  0  0  0  0  0  0
    4.4292   -3.5417    0.0000 C   0  0  0  0  0  0  0  0  0  0  0  0
    3.7167   -3.9625    0.0000 C   0  0  0  0  0  0  0  0  0  0  0  0
    7.9917   -1.4667    0.0000 O   0  0  0  0  0  0  0  0  0  0  0  0
    2.9917   -5.2000    0.0000 C   0  0  0  0  0  0  0  0  0  0  0  0
    9.4167   -2.2875    0.0000 C   0  0  0  0  0  0  0  0  0  0  0  0
    6.5667   -2.3000    0.0000 C   0  0  0  0  0  0  0  0  0  0  0  0
    7.2792   -3.5375    0.0000 C   0  0  0  0  0  0  0  0  0  0  0  0
    5.8542   -2.7167    0.0000 C   0  0  0  0  0  0  0  0  0  0  0  0
    6.5667   -3.9500    0.0000 C   0  0  0  0  0  0  0  0  0  0  0  0
    5.1542   -4.7750    0.0000 C   0  0  0  0  0  0  0  0  0  0  0  0
    3.7167   -4.7875    0.0000 C   0  0  0  0  0  0  0  0  0  0  0  0
    0.1542   -5.1875    0.0000 C   0  0  0  0  0  0  0  0  0  0  0  0
  2  1  1  0
  3  1  2  0
  4  6  2  0
  5  2  2  0
  6  3  1  0
  7 17  1  0
  8 18  1  0
  9 25  1  0
 10  9  1  0
 11 21  1  0
 12 30  1  0
 13  8  1  0
 14 12  3  0
 15 10  1  0
 16  2  1  0
 17  9  2  0
 18 27  2  0
 19 11  1  0
 20  1  1  0
 21 22  1  0
 22 16  2  0
 23  8  2  0
 24  5  1  0
 25 13  1  0
 26 28  2  0
 27 29  1  0
 28 19  1  0
 29 19  2  0
 30 11  1  0
 31 22  1  0
 32  6  1  0
  4  5  1  0
 31 24  2  0
 18 26  1  0
  7 15  2  0
M  END

> <chembl_id>
CHEMBL6496

> <chembl_pref_name>
None

$$$$

     RDKit          2D

 30 32  0  0  0  0  0  0  0  0999 V2000
    3.8125   -6.6042    0.0000 C   0  0  0  0  0  0  0  0  0  0  0  0
    3.8167   -7.4375    0.0000 N   0  0  0  0  0  0  0  0  0  0  0  0
    2.3792   -7.4417    0.0000 C   0  0  0  0  0  0  0  0  0  0  0  0
    3.1042   -7.8542    0.0000 C   0  0  0  0  0  0  0  0  0  0  0  0
    3.0917   -6.2000    0.0000 N   0  0  0  0  0  0  0  0  0  0  0  0
    2.3792   -6.6167    0.0000 C   0  0  0  0  0  0  0  0  0  0  0  0
    4.5250   -6.1917    0.0000 N   0  0  0  0  0  0  0  0  0  0  0  0
    1.6667   -7.8542    0.0000 C   0  0  0  0  0  0  0  0  0  0  0  0
    1.6667   -6.2042    0.0000 C   0  0  0  0  0  0  0  0  0  0  0  0
    0.9542   -7.4417    0.0000 C   0  0  0  0  0  0  0  0  0  0  0  0
    0.9542   -6.6167    0.0000 C   0  0  0  0  0  0  0  0  0  0  0  0
    7.3750   -3.7042    0.0000 C   0  0  0  0  0  0  0  0  0  0  0  0
    4.5167   -5.3667    0.0000 C   0  0  0  0  0  0  0  0  0  0  0  0
    5.2375   -6.6042    0.0000 C   0  0  0  0  0  0  0  0  0  0  0  0
    8.0875   -4.1167    0.0000 O   0  0  0  0  0  0  0  0  0  0  0  0
    3.1042   -8.6792    0.0000 N   0  0  0  0  0  0  0  0  0  0  0  0
    5.9500   -6.1875    0.0000 C   0  0  0  0  0  0  0  0  0  0  0  0
    5.2292   -4.9542    0.0000 C   0  0  0  0  0  0  0  0  0  0  0  0
    7.3667   -2.8792    0.0000 N   0  0  0  0  0  0  0  0  0  0  0  0
    6.6625   -4.9500    0.0000 O   0  0  0  0  0  0  0  0  0  0  0  0
    5.9500   -5.3625    0.0000 C   0  0  0  0  0  0  0  0  0  0  0  0
    6.6542   -4.1250    0.0000 C   0  0  0  0  0  0  0  0  0  0  0  0
    0.2417   -7.8542    0.0000 O   0  0  0  0  0  0  0  0  0  0  0  0
    0.2417   -6.2042    0.0000 O   0  0  0  0  0  0  0  0  0  0  0  0
    6.5667   -2.6667    0.0000 C   0  0  0  0  0  0  0  0  0  0  0  0
    0.2417   -8.6792    0.0000 C   0  0  0  0  0  0  0  0  0  0  0  0
    0.2417   -5.3792    0.0000 C   0  0  0  0  0  0  0  0  0  0  0  0
    5.9792   -3.2417    0.0000 C   0  0  0  0  0  0  0  0  0  0  0  0
    5.1875   -3.0250    0.0000 C   0  0  0  0  0  0  0  0  0  0  0  0
    4.6000   -3.6042    0.0000 C   0  0  0  0  0  0  0  0  0  0  0  0
  2  1  1  0
  3  6  1  0
  4  2  2  0
  5  1  2  0
  6  5  1  0
  7  1  1  0
  8  3  2  0
  9  6  2  0
 10 11  2  0
 11  9  1  0
 12 22  1  0
 13  7  1  0
 14  7  1  0
 15 12  2  0
 16  4  1  0
 17 14  1  0
 18 13  1  0
 19 12  1  0
 20 21  1  0
 21 17  1  0
 22 20  1  0
 23 10  1  0
 24 11  1  0
 25 19  1  0
 26 23  1  0
 27 24  1  0
 28 25  1  0
 29 28  1  0
 30 29  1  0
  4  3  1  0
 21 18  1  0
 10  8  1  0
M  END

> <chembl_id>
CHEMBL6481

> <chembl_pref_name>
None

$$$$

     RDKit          2D

 24 27  0  0  0  0  0  0  0  0999 V2000
    7.0042   -3.6125    0.0000 N   0  0  0  0  0  0  0  0  0  0  0  0
    6.2875   -4.0250    0.0000 C   0  0  0  0  0  0  0  0  0  0  0  0
    5.5667   -3.6042    0.0000 C   0  0  0  0  0  0  0  0  0  0  0  0
    5.5750   -2.7792    0.0000 C   0  0  0  0  0  0  0  0  0  0  0  0
    6.2875   -2.3667    0.0000 C   0  0  0  0  0  0  0  0  0  0  0  0
    7.0042   -2.7792    0.0000 C   0  0  0  0  0  0  0  0  0  0  0  0
    6.9917   -5.2625    0.0000 N   0  0  0  0  0  0  0  0  0  0  0  0
    6.2792   -4.8417    0.0000 C   0  0  0  0  0  0  0  0  0  0  0  0
    7.7167   -4.0250    0.0000 C   0  0  0  0  0  0  0  0  0  0  0  0
    6.2875   -1.5417    0.0000 C   0  0  0  0  0  0  0  0  0  0  0  0
    7.7125   -4.8542    0.0000 C   0  0  0  0  0  0  0  0  0  0  0  0
    4.8542   -4.0250    0.0000 C   0  0  0  0  0  0  0  0  0  0  0  0
    4.8542   -2.3667    0.0000 C   0  0  0  0  0  0  0  0  0  0  0  0
    6.9917   -6.0875    0.0000 C   0  0  0  0  0  0  0  0  0  0  0  0
    5.5750   -1.1375    0.0000 C   0  0  0  0  0  0  0  0  0  0  0  0
    7.0042   -1.1292    0.0000 C   0  0  0  0  0  0  0  0  0  0  0  0
    6.2750   -6.5000    0.0000 C   0  0  0  0  0  0  0  0  0  0  0  0
    6.2667   -7.3250    0.0000 C   0  0  0  0  0  0  0  0  0  0  0  0
    4.1417   -2.7875    0.0000 C   0  0  0  0  0  0  0  0  0  0  0  0
    4.1417   -3.6125    0.0000 C   0  0  0  0  0  0  0  0  0  0  0  0
    5.5542   -7.7292    0.0000 C   0  0  0  0  0  0  0  0  0  0  0  0
    5.5750   -0.3125    0.0000 C   0  0  0  0  0  0  0  0  0  0  0  0
    7.0042   -0.3042    0.0000 C   0  0  0  0  0  0  0  0  0  0  0  0
    6.2917    0.1083    0.0000 C   0  0  0  0  0  0  0  0  0  0  0  0
  2  1  1  0
  3  2  1  0
  4  5  1  0
  5  6  1  0
  6  1  1  0
  7 11  1  0
  8  2  1  0
  9  1  1  0
 10  5  1  0
 11  9  1  0
 12  3  2  0
 13  4  2  0
 14  7  1  0
 15 10  1  0
 16 10  2  0
 17 14  1  0
 18 17  1  0
 19 13  1  0
 20 12  1  0
 21 18  1  0
 22 15  2  0
 23 16  1  0
 24 23  2  0
  8  7  1  0
  4  3  1  0
 19 20  2  0
 24 22  1  0
M  END

> <chembl_id>
CHEMBL6482

> <chembl_pref_name>
None

$$$$

     RDKit          2D

 20 22  0  0  0  0  0  0  0  0999 V2000
    6.1542   -3.7917    0.0000 C   0  0  0  0  0  0  0  0  0  0  0  0
    7.5792   -4.6250    0.0000 N   0  0  0  0  0  0  0  0  0  0  0  0
    6.1500   -4.6167    0.0000 C   0  0  0  0  0  0  0  0  0  0  0  0
    6.8667   -3.3792    0.0000 C   0  0  0  0  0  0  0  0  0  0  0  0
    6.8667   -5.0375    0.0000 C   0  0  0  0  0  0  0  0  0  0  0  0
    7.5792   -3.7917    0.0000 C   0  0  0  0  0  0  0  0  0  0  0  0
    6.8625   -5.8542    0.0000 C   0  0  0  0  0  0  0  0  0  0  0  0
    6.8667   -2.5542    0.0000 C   0  0  0  0  0  0  0  0  0  0  0  0
    7.5750   -6.2750    0.0000 N   0  0  0  0  0  0  0  0  0  0  0  0
    5.4375   -3.3792    0.0000 C   0  0  0  0  0  0  0  0  0  0  0  0
    5.4375   -5.0375    0.0000 C   0  0  0  0  0  0  0  0  0  0  0  0
    7.5792   -2.1417    0.0000 C   0  0  0  0  0  0  0  0  0  0  0  0
    6.1542   -2.1500    0.0000 C   0  0  0  0  0  0  0  0  0  0  0  0
    7.5667   -7.1000    0.0000 C   0  0  0  0  0  0  0  0  0  0  0  0
    8.2917   -5.8667    0.0000 C   0  0  0  0  0  0  0  0  0  0  0  0
    4.7250   -3.8000    0.0000 C   0  0  0  0  0  0  0  0  0  0  0  0
    4.7250   -4.6250    0.0000 C   0  0  0  0  0  0  0  0  0  0  0  0
    6.1542   -1.3250    0.0000 C   0  0  0  0  0  0  0  0  0  0  0  0
    7.5792   -1.3167    0.0000 C   0  0  0  0  0  0  0  0  0  0  0  0
    6.8667   -0.9042    0.0000 C   0  0  0  0  0  0  0  0  0  0  0  0
  2  6  1  0
  3  1  1  0
  4  1  1  0
  5  3  1  0
  6  4  1  0
  7  5  1  0
  8  4  1  0
  9  7  1  0
 10  1  2  0
 11  3  2  0
 12  8  2  0
 13  8  1  0
 14  9  1  0
 15  9  1  0
 16 10  1  0
 17 16  2  0
 18 13  2  0
 19 12  1  0
 20 18  1  0
  2  5  1  0
 17 11  1  0
 19 20  2  0
M  END

> <chembl_id>
CHEMBL414182

> <chembl_pref_name>
None

$$$$

     RDKit          2D

 20 22  0  0  0  0  0  0  0  0999 V2000
    5.7042   -6.8750    0.0000 C   0  0  0  0  0  0  0  0  0  0  0  0
    6.4167   -6.4542    0.0000 C   0  0  0  0  0  0  0  0  0  0  0  0
    7.1375   -7.7042    0.0000 N   0  0  0  0  0  0  0  0  0  0  0  0
    5.7042   -7.7000    0.0000 C   0  0  0  0  0  0  0  0  0  0  0  0
    7.1375   -6.8750    0.0000 C   0  0  0  0  0  0  0  0  0  0  0  0
    6.4167   -8.1167    0.0000 C   0  0  0  0  0  0  0  0  0  0  0  0
    6.4167   -5.6375    0.0000 C   0  0  0  0  0  0  0  0  0  0  0  0
    7.1292   -9.3542    0.0000 N   0  0  0  0  0  0  0  0  0  0  0  0
    4.9917   -6.4625    0.0000 C   0  0  0  0  0  0  0  0  0  0  0  0
    4.9917   -8.1167    0.0000 C   0  0  0  0  0  0  0  0  0  0  0  0
    6.4167   -8.9375    0.0000 C   0  0  0  0  0  0  0  0  0  0  0  0
    7.1375   -5.2250    0.0000 C   0  0  0  0  0  0  0  0  0  0  0  0
    5.7042   -5.2292    0.0000 C   0  0  0  0  0  0  0  0  0  0  0  0
    7.1250  -10.1792    0.0000 C   0  0  0  0  0  0  0  0  0  0  0  0
    4.2792   -6.8792    0.0000 C   0  0  0  0  0  0  0  0  0  0  0  0
    4.2792   -7.7042    0.0000 C   0  0  0  0  0  0  0  0  0  0  0  0
    6.4042  -10.5875    0.0000 C   0  0  0  0  0  0  0  0  0  0  0  0
    5.7042   -4.4042    0.0000 C   0  0  0  0  0  0  0  0  0  0  0  0
    7.1375   -4.4000    0.0000 C   0  0  0  0  0  0  0  0  0  0  0  0
    6.4250   -3.9875    0.0000 C   0  0  0  0  0  0  0  0  0  0  0  0
  2  1  1  0
  3  6  1  0
  4  1  1  0
  5  2  1  0
  6  4  1  0
  7  2  1  0
  8 11  1  0
  9  1  2  0
 10  4  2  0
 11  6  1  0
 12  7  2  0
 13  7  1  0
 14  8  1  0
 15  9  1  0
 16 15  2  0
 17 14  1  0
 18 13  2  0
 19 12  1  0
 20 18  1  0
  3  5  1  0
 10 16  1  0
 19 20  2  0
M  END

> <chembl_id>
CHEMBL6603

> <chembl_pref_name>
None

$$$$

     RDKit          2D

 32 35  0  0  0  0  0  0  0  0999 V2000
    1.5917   -3.5542    0.0000 C   0  0  0  0  0  0  0  0  0  0  0  0
    2.3042   -3.9667    0.0000 C   0  0  0  0  0  0  0  0  0  0  0  0
    0.8792   -3.9542    0.0000 N   0  0  0  0  0  0  0  0  0  0  0  0
    1.5917   -5.1917    0.0000 N   0  0  0  0  0  0  0  0  0  0  0  0
    2.2917   -4.7917    0.0000 C   0  0  0  0  0  0  0  0  0  0  0  0
    0.8792   -4.7792    0.0000 C   0  0  0  0  0  0  0  0  0  0  0  0
    8.0000   -2.2917    0.0000 C   0  0  0  0  0  0  0  0  0  0  0  0
    9.4250   -1.4667    0.0000 C   0  0  0  0  0  0  0  0  0  0  0  0
    5.1500   -3.9542    0.0000 N   0  0  0  0  0  0  0  0  0  0  0  0
    5.8500   -5.2167    0.0000 C   0  0  0  0  0  0  0  0  0  0  0  0
    8.7125   -2.7042    0.0000 N   0  0  0  0  0  0  0  0  0  0  0  0
    6.5500   -5.6667    0.0000 C   0  0  0  0  0  0  0  0  0  0  0  0
    3.0042   -3.5417    0.0000 C   0  0  0  0  0  0  0  0  0  0  0  0
    7.2875   -2.7042    0.0000 C   0  0  0  0  0  0  0  0  0  0  0  0
    5.8625   -3.5417    0.0000 C   0  0  0  0  0  0  0  0  0  0  0  0
    1.6042   -2.7292    0.0000 O   0  0  0  0  0  0  0  0  0  0  0  0
    9.8250   -0.1917    0.0000 O   0  0  0  0  0  0  0  0  0  0  0  0
    4.4375   -3.5417    0.0000 C   0  0  0  0  0  0  0  0  0  0  0  0
   10.0792   -0.9792    0.0000 C   0  0  0  0  0  0  0  0  0  0  0  0
    8.7500   -0.9792    0.0000 C   0  0  0  0  0  0  0  0  0  0  0  0
    3.7250   -3.9542    0.0000 C   0  0  0  0  0  0  0  0  0  0  0  0
    8.0000   -1.4667    0.0000 O   0  0  0  0  0  0  0  0  0  0  0  0
    3.0042   -5.2042    0.0000 C   0  0  0  0  0  0  0  0  0  0  0  0
    9.0000   -0.1917    0.0000 C   0  0  0  0  0  0  0  0  0  0  0  0
    9.4250   -2.2917    0.0000 C   0  0  0  0  0  0  0  0  0  0  0  0
    6.5667   -2.3042    0.0000 C   0  0  0  0  0  0  0  0  0  0  0  0
    7.2875   -3.5292    0.0000 C   0  0  0  0  0  0  0  0  0  0  0  0
    5.8542   -2.7167    0.0000 C   0  0  0  0  0  0  0  0  0  0  0  0
    6.5750   -3.9542    0.0000 C   0  0  0  0  0  0  0  0  0  0  0  0
    5.1500   -4.7792    0.0000 C   0  0  0  0  0  0  0  0  0  0  0  0
    3.7250   -4.7917    0.0000 C   0  0  0  0  0  0  0  0  0  0  0  0
    0.1542   -5.1917    0.0000 C   0  0  0  0  0  0  0  0  0  0  0  0
  2  1  1  0
  3  1  2  0
  4  6  2  0
  5  2  2  0
  6  3  1  0
  7 14  1  0
  8 25  1  0
  9 18  1  0
 10 30  1  0
 11  7  1  0
 12 10  3  0
 13  2  1  0
 14 27  2  0
 15  9  1  0
 16  1  1  0
 17 19  1  0
 18 21  1  0
 19  8  2  0
 20  8  1  0
 21 13  2  0
 22  7  2  0
 23  5  1  0
 24 20  2  0
 25 11  1  0
 26 28  2  0
 27 29  1  0
 28 15  1  0
 29 15  2  0
 30  9  1  0
 31 21  1  0
 32  6  1  0
  4  5  1  0
 31 23  2  0
 14 26  1  0
 24 17  1  0
M  END

> <chembl_id>
CHEMBL6590

> <chembl_pref_name>
None

$$$$

     RDKit          2D

 32 35  0  0  0  0  0  0  0  0999 V2000
    1.5667   -3.5417    0.0000 C   0  0  0  0  0  0  0  0  0  0  0  0
    2.2792   -3.9542    0.0000 C   0  0  0  0  0  0  0  0  0  0  0  0
    0.8625   -3.9417    0.0000 N   0  0  0  0  0  0  0  0  0  0  0  0
    1.5542   -5.1792    0.0000 N   0  0  0  0  0  0  0  0  0  0  0  0
    2.2792   -4.7750    0.0000 C   0  0  0  0  0  0  0  0  0  0  0  0
    0.8625   -4.7667    0.0000 C   0  0  0  0  0  0  0  0  0  0  0  0
    7.9792   -2.2792    0.0000 C   0  0  0  0  0  0  0  0  0  0  0  0
    5.1292   -3.9375    0.0000 N   0  0  0  0  0  0  0  0  0  0  0  0
    5.8292   -5.2042    0.0000 C   0  0  0  0  0  0  0  0  0  0  0  0
    6.5292   -5.6500    0.0000 C   0  0  0  0  0  0  0  0  0  0  0  0
    8.6917   -2.6875    0.0000 N   0  0  0  0  0  0  0  0  0  0  0  0
    2.9917   -3.5292    0.0000 C   0  0  0  0  0  0  0  0  0  0  0  0
    9.4042   -1.4500    0.0000 C   0  0  0  0  0  0  0  0  0  0  0  0
    7.2667   -2.6917    0.0000 C   0  0  0  0  0  0  0  0  0  0  0  0
    5.8417   -3.5250    0.0000 C   0  0  0  0  0  0  0  0  0  0  0  0
    1.5792   -2.7167    0.0000 O   0  0  0  0  0  0  0  0  0  0  0  0
   10.0667   -0.9625    0.0000 O   0  0  0  0  0  0  0  0  0  0  0  0
    4.4167   -3.5292    0.0000 C   0  0  0  0  0  0  0  0  0  0  0  0
    3.7042   -3.9417    0.0000 C   0  0  0  0  0  0  0  0  0  0  0  0
    7.9792   -1.4542    0.0000 O   0  0  0  0  0  0  0  0  0  0  0  0
    8.7292   -0.9667    0.0000 C   0  0  0  0  0  0  0  0  0  0  0  0
    2.9917   -5.1875    0.0000 C   0  0  0  0  0  0  0  0  0  0  0  0
    9.8042   -0.1792    0.0000 C   0  0  0  0  0  0  0  0  0  0  0  0
    8.9792   -0.1792    0.0000 C   0  0  0  0  0  0  0  0  0  0  0  0
    7.2667   -3.5167    0.0000 C   0  0  0  0  0  0  0  0  0  0  0  0
    6.5542   -2.2875    0.0000 C   0  0  0  0  0  0  0  0  0  0  0  0
    6.5542   -3.9375    0.0000 C   0  0  0  0  0  0  0  0  0  0  0  0
    5.8417   -2.7042    0.0000 C   0  0  0  0  0  0  0  0  0  0  0  0
    9.4042   -2.2750    0.0000 C   0  0  0  0  0  0  0  0  0  0  0  0
    5.1292   -4.7625    0.0000 C   0  0  0  0  0  0  0  0  0  0  0  0
    3.7042   -4.7750    0.0000 C   0  0  0  0  0  0  0  0  0  0  0  0
    0.1417   -5.1750    0.0000 C   0  0  0  0  0  0  0  0  0  0  0  0
  2  1  1  0
  3  1  2  0
  4  6  2  0
  5  2  2  0
  6  3  1  0
  7 14  1  0
  8 18  1  0
  9 30  1  0
 10  9  3  0
 11  7  1  0
 12  2  1  0
 13 29  1  0
 14 26  1  0
 15  8  1  0
 16  1  1  0
 17 13  1  0
 18 19  1  0
 19 12  2  0
 20  7  2  0
 21 13  2  0
 22  5  1  0
 23 17  1  0
 24 21  1  0
 25 27  1  0
 26 28  2  0
 27 15  2  0
 28 15  1  0
 29 11  1  0
 30  8  1  0
 31 19  1  0
 32  6  1  0
  4  5  1  0
 31 22  2  0
 14 25  2  0
 24 23  2  0
M  END

> <chembl_id>
CHEMBL264097

> <chembl_pref_name>
None

$$$$

     RDKit          2D

 14 16  0  0  0  0  0  0  0  0999 V2000
    5.4792   -2.2417    0.0000 C   0  0  0  0  0  0  0  0  0  0  0  0
    5.4792   -3.0750    0.0000 C   0  0  0  0  0  0  0  0  0  0  0  0
    4.0500   -2.2417    0.0000 C   0  0  0  0  0  0  0  0  0  0  0  0
    4.7625   -3.4875    0.0000 N   0  0  0  0  0  0  0  0  0  0  0  0
    4.0417   -3.0667    0.0000 C   0  0  0  0  0  0  0  0  0  0  0  0
    6.3042   -2.2417    0.0000 O   0  0  0  0  0  0  0  0  0  0  0  0
    5.2292   -1.4625    0.0000 O   0  0  0  0  0  0  0  0  0  0  0  0
    6.1917   -3.4875    0.0000 O   0  0  0  0  0  0  0  0  0  0  0  0
    3.3292   -1.8292    0.0000 C   0  0  0  0  0  0  0  0  0  0  0  0
    3.3292   -3.4875    0.0000 C   0  0  0  0  0  0  0  0  0  0  0  0
    6.5667   -1.4625    0.0000 C   0  0  0  0  0  0  0  0  0  0  0  0
    5.8917   -0.9750    0.0000 C   0  0  0  0  0  0  0  0  0  0  0  0
    2.6167   -2.2500    0.0000 C   0  0  0  0  0  0  0  0  0  0  0  0
    2.6167   -3.0750    0.0000 C   0  0  0  0  0  0  0  0  0  0  0  0
  2  1  1  0
  3  1  1  0
  4  2  1  0
  5  3  1  0
  6  1  1  0
  7  1  1  0
  8  2  2  0
  9  3  2  0
 10  5  2  0
 11  6  1  0
 12  7  1  0
 13  9  1  0
 14 13  2  0
 12 11  1  0
  4  5  1  0
 14 10  1  0
M  END

> <chembl_id>
CHEMBL6816

> <chembl_pref_name>
None

$$$$

     RDKit          2D

 35 38  0  0  0  0  0  0  0  0999 V2000
    2.8875  -13.9292    0.0000 C   0  0  0  0  0  0  0  0  0  0  0  0
    2.8917  -13.1042    0.0000 C   0  0  0  0  0  0  0  0  0  0  0  0
    4.3167  -13.9375    0.0000 C   0  0  0  0  0  0  0  0  0  0  0  0
   12.7042  -13.0917    0.0000 N   0  0  0  0  0  0  0  0  0  0  0  0
    3.6042  -12.6917    0.0000 O   0  0  0  0  0  0  0  0  0  0  0  0
   12.7000  -13.8125    0.0000 C   0  0  0  0  0  0  0  0  0  0  0  0
    2.1750  -14.3500    0.0000 C   0  0  0  0  0  0  0  0  0  0  0  0
    4.3167  -13.1042    0.0000 C   0  0  0  0  0  0  0  0  0  0  0  0
   12.0792  -12.7250    0.0000 C   0  0  0  0  0  0  0  0  0  0  0  0
    1.4625  -13.9375    0.0000 C   0  0  0  0  0  0  0  0  0  0  0  0
    2.1750  -12.6917    0.0000 C   0  0  0  0  0  0  0  0  0  0  0  0
   11.4542  -13.8042    0.0000 S   0  0  0  0  0  0  0  0  0  0  0  0
    1.4625  -13.1125    0.0000 C   0  0  0  0  0  0  0  0  0  0  0  0
   11.4625  -13.0792    0.0000 C   0  0  0  0  0  0  0  0  0  0  0  0
    5.0292  -14.3500    0.0000 C   0  0  0  0  0  0  0  0  0  0  0  0
   13.2792  -14.3917    0.0000 O   0  0  0  0  0  0  0  0  0  0  0  0
   12.0750  -12.0000    0.0000 O   0  0  0  0  0  0  0  0  0  0  0  0
   10.7417  -12.6750    0.0000 C   0  0  0  0  0  0  0  0  0  0  0  0
    5.7417  -13.9292    0.0000 N   0  0  0  0  0  0  0  0  0  0  0  0
    0.7417  -14.3417    0.0000 O   0  0  0  0  0  0  0  0  0  0  0  0
   10.0292  -13.0875    0.0000 C   0  0  0  0  0  0  0  0  0  0  0  0
    8.6042  -13.9042    0.0000 C   0  0  0  0  0  0  0  0  0  0  0  0
    2.1792  -15.1750    0.0000 C   0  0  0  0  0  0  0  0  0  0  0  0
    5.0375  -12.7000    0.0000 C   0  0  0  0  0  0  0  0  0  0  0  0
    5.0292  -13.5167    0.0000 C   0  0  0  0  0  0  0  0  0  0  0  0
   10.0292  -13.9125    0.0000 C   0  0  0  0  0  0  0  0  0  0  0  0
    2.1667  -11.8667    0.0000 C   0  0  0  0  0  0  0  0  0  0  0  0
    9.3125  -12.6750    0.0000 C   0  0  0  0  0  0  0  0  0  0  0  0
    0.7500  -12.7000    0.0000 C   0  0  0  0  0  0  0  0  0  0  0  0
    8.6042  -13.0875    0.0000 C   0  0  0  0  0  0  0  0  0  0  0  0
    9.3167  -14.3250    0.0000 C   0  0  0  0  0  0  0  0  0  0  0  0
    7.8917  -14.3167    0.0000 O   0  0  0  0  0  0  0  0  0  0  0  0
    7.1667  -13.9167    0.0000 C   0  0  0  0  0  0  0  0  0  0  0  0
    6.4625  -14.3375    0.0000 C   0  0  0  0  0  0  0  0  0  0  0  0
    5.7292  -13.1042    0.0000 C   0  0  0  0  0  0  0  0  0  0  0  0
  2  1  1  0
  3  1  1  0
  4  9  1  0
  5  2  1  0
  6 12  1  0
  7  1  2  0
  8  3  1  0
  9 14  1  0
 10  7  1  0
 11  2  2  0
 12 14  1  0
 13 10  2  0
 14 18  1  0
 15  3  1  0
 16  6  2  0
 17  9  2  0
 18 21  1  0
 19 15  1  0
 20 10  1  0
 21 26  2  0
 22 32  1  0
 23  7  1  0
 24  8  1  0
 25  8  1  0
 26 31  1  0
 27 11  1  0
 28 30  2  0
 29 13  1  0
 30 22  1  0
 31 22  2  0
 32 33  1  0
 33 34  1  0
 34 19  1  0
 35 19  1  0
  5  8  1  0
 13 11  1  0
 21 28  1  0
  4  6  1  0
M  END

> <chembl_id>
CHEMBL267427

> <chembl_pref_name>
None

$$$$

     RDKit          2D

 29 31  0  0  0  0  0  0  0  0999 V2000
   -3.2625   -2.3000    0.0000 S   0  0  0  0  0  0  0  0  0  0  0  0
   -2.5458   -1.0542    0.0000 C   0  0  0  0  0  0  0  0  0  0  0  0
    0.3042   -1.0417    0.0000 C   0  0  0  0  0  0  0  0  0  0  0  0
   -3.2625   -0.6417    0.0000 C   0  0  0  0  0  0  0  0  0  0  0  0
   -2.5458   -1.8792    0.0000 C   0  0  0  0  0  0  0  0  0  0  0  0
   -3.9750   -1.8875    0.0000 C   0  0  0  0  0  0  0  0  0  0  0  0
    3.8875   -2.2542    0.0000 C   0  0  0  0  0  0  0  0  0  0  0  0
   -0.4083   -0.6292    0.0000 N   0  0  0  0  0  0  0  0  0  0  0  0
   -3.9750   -1.0625    0.0000 C   0  0  0  0  0  0  0  0  0  0  0  0
    1.0167   -0.6250    0.0000 N   0  0  0  0  0  0  0  0  0  0  0  0
    0.3125   -1.8667    0.0000 S   0  0  0  0  0  0  0  0  0  0  0  0
    3.1667   -1.8500    0.0000 C   0  0  0  0  0  0  0  0  0  0  0  0
   -1.8458   -0.6417    0.0000 C   0  0  0  0  0  0  0  0  0  0  0  0
   -1.1208   -1.0500    0.0000 C   0  0  0  0  0  0  0  0  0  0  0  0
    4.6000   -1.8375    0.0000 O   0  0  0  0  0  0  0  0  0  0  0  0
   -1.8333   -2.2917    0.0000 C   0  0  0  0  0  0  0  0  0  0  0  0
    2.4542   -2.2667    0.0000 C   0  0  0  0  0  0  0  0  0  0  0  0
    3.1542   -1.0167    0.0000 C   0  0  0  0  0  0  0  0  0  0  0  0
    1.7375   -1.0292    0.0000 C   0  0  0  0  0  0  0  0  0  0  0  0
   -1.1208   -1.8792    0.0000 C   0  0  0  0  0  0  0  0  0  0  0  0
    3.8917   -3.0792    0.0000 O   0  0  0  0  0  0  0  0  0  0  0  0
    2.4417   -0.6167    0.0000 C   0  0  0  0  0  0  0  0  0  0  0  0
    1.7375   -1.8542    0.0000 C   0  0  0  0  0  0  0  0  0  0  0  0
   -2.6833   -0.0542    0.0000 C   0  0  0  0  0  0  0  0  0  0  0  0
   -3.8500   -0.0542    0.0000 C   0  0  0  0  0  0  0  0  0  0  0  0
   -4.6958   -1.4750    0.0000 C   0  0  0  0  0  0  0  0  0  0  0  0
   -4.6958   -2.3000    0.0000 C   0  0  0  0  0  0  0  0  0  0  0  0
    3.1792   -3.5000    0.0000 C   0  0  0  0  0  0  0  0  0  0  0  0
    3.1875   -4.3167    0.0000 C   0  0  0  0  0  0  0  0  0  0  0  0
  2  5  2  0
  3  8  2  0
  4  9  1  0
  5  1  1  0
  6  1  1  0
  7 12  1  0
  8 14  1  0
  9  6  1  0
 10  3  1  0
 11  3  1  0
 12 17  2  0
 13  2  1  0
 14 20  1  0
 15  7  2  0
 16  5  1  0
 17 23  1  0
 18 22  2  0
 19 10  1  0
 20 16  2  0
 21  7  1  0
 22 19  1  0
 23 19  2  0
 24  4  1  0
 25  4  1  0
 26  6  1  0
 27  6  1  0
 28 21  1  0
 29 28  1  0
  2  4  1  0
 14 13  2  0
 18 12  1  0
M  END

> <chembl_id>
CHEMBL6609

> <chembl_pref_name>
None

$$$$

     RDKit          2D

 29 30  0  0  1  0  0  0  0  0999 V2000
   -2.4083   -0.5792    0.0000 C   0  0  0  0  0  0  0  0  0  0  0  0
   -1.7958   -1.3375    0.0000 C   0  0  0  0  0  0  0  0  0  0  0  0
   -2.7333   -1.0792    0.0000 C   0  0  0  0  0  0  0  0  0  0  0  0
   -1.8250   -0.7292    0.0000 C   0  0  0  0  0  0  0  0  0  0  0  0
   -2.3583   -1.5542    0.0000 C   0  0  0  0  0  0  0  0  0  0  0  0
   -1.2958   -1.6625    0.0000 C   0  0  0  0  0  0  0  0  0  0  0  0
    1.8417   -0.5917    0.0000 C   0  0  0  0  0  0  0  0  0  0  0  0
   -2.6250   -0.0042    0.0000 O   0  0  0  0  0  0  0  0  0  0  0  0
   -0.7583   -1.3917    0.0000 C   0  0  0  0  0  0  0  0  0  0  0  0
    1.8417   -1.1917    0.0000 O   0  0  0  0  0  0  0  0  0  0  0  0
    0.2792   -1.4375    0.0000 C   0  0  0  0  0  0  0  0  0  0  0  0
    0.2542   -0.2000    0.0000 C   0  0  0  0  0  0  0  0  0  0  0  0
   -0.3333   -0.1917    0.0000 C   0  0  0  0  0  0  0  0  0  0  0  0
   -2.5083   -2.1292    0.0000 O   0  0  0  0  0  0  0  0  0  0  0  0
    0.7792   -1.7667    0.0000 C   0  0  0  0  0  0  0  0  0  0  0  0
    2.3542   -0.2875    0.0000 O   0  0  0  0  0  0  0  0  0  0  0  0
    0.3375   -2.0417    0.0000 O   0  0  0  0  0  0  0  0  0  0  0  0
    1.3167   -1.4917    0.0000 C   0  0  0  0  0  0  0  0  0  0  0  0
   -0.2583   -1.7167    0.0000 C   0  0  0  0  0  0  0  0  0  0  0  0
   -1.3625   -0.3542    0.0000 C   0  0  0  0  0  0  0  0  0  0  0  0
    1.8167   -1.8250    0.0000 C   0  0  0  0  0  0  0  0  0  0  0  0
    2.5292   -2.2792    0.0000 C   0  0  0  0  0  0  0  0  0  0  0  0
    1.3167   -0.2917    0.0000 C   0  0  0  0  0  0  0  0  0  0  0  0
   -0.8083   -0.5667    0.0000 C   0  0  0  0  0  0  0  0  0  0  0  0
    0.7917   -0.5917    0.0000 C   0  0  0  0  0  0  0  0  0  0  0  0
    0.3667   -0.8500    0.0000 C   0  0  0  0  0  0  0  0  0  0  0  0
    1.9417   -2.4042    0.0000 C   0  0  0  0  0  0  0  0  0  0  0  0
    2.4042   -1.6917    0.0000 C   0  0  0  0  0  0  0  0  0  0  0  0
    2.9417   -0.4042    0.0000 C   0  0  0  0  0  0  0  0  0  0  0  0
  2  4  1  0
  3  1  1  0
  4  1  1  0
  5  3  1  0
  2  6  1  1
  7 23  1  0
  8  1  2  0
  9  6  2  0
 10  7  2  0
 11 19  1  0
 12 13  2  0
 13 24  1  0
  5 14  1  6
 15 11  1  0
 16  7  1  0
 11 17  1  0
 18 15  1  0
 19  9  1  0
  4 20  1  6
 21 18  1  0
 22 28  1  0
 23 25  1  0
 24 20  1  0
 25 12  1  0
 26 11  1  0
 27 21  1  0
 28 21  1  0
 29 16  1  0
  5  2  1  0
 27 22  1  0
M  END

> <chembl_id>
CHEMBL6502

> <chembl_pref_name>
None

$$$$

     RDKit          2D

 36 39  0  0  1  0  0  0  0  0999 V2000
    4.6542   -0.9417    0.0000 C   0  0  0  0  0  0  0  0  0  0  0  0
    4.6542   -1.7292    0.0000 C   0  0  0  0  0  0  0  0  0  0  0  0
    5.3292   -1.3417    0.0000 C   0  0  0  0  0  0  0  0  0  0  0  0
    2.6792   -1.9167    0.0000 C   0  0  0  0  0  0  0  0  0  0  0  0
    2.4042   -2.6292    0.0000 C   0  0  0  0  0  0  0  0  0  0  0  0
    3.3042   -1.7417    0.0000 C   0  0  0  0  0  0  0  0  0  0  0  0
    3.9792   -2.1292    0.0000 C   0  0  0  0  0  0  0  0  0  0  0  0
    2.0917   -1.4292    0.0000 C   0  0  0  0  0  0  0  0  0  0  0  0
    1.6417   -2.5917    0.0000 C   0  0  0  0  0  0  0  0  0  0  0  0
    5.2167   -0.3792    0.0000 O   0  0  0  0  0  0  0  0  0  0  0  0
    1.4542   -1.8542    0.0000 C   0  0  0  0  0  0  0  0  0  0  0  0
    3.9792   -0.5417    0.0000 C   0  0  0  0  0  0  0  0  0  0  0  0
    3.3042   -0.9417    0.0000 C   0  0  0  0  0  0  0  0  0  0  0  0
    5.0042    0.3958    0.0000 C   0  0  0  0  0  0  0  0  0  0  0  0
    4.1417   -2.7917    0.0000 C   0  0  0  0  0  0  0  0  0  0  0  0
    3.6417   -3.3792    0.0000 C   0  0  0  0  0  0  0  0  0  0  0  0
    2.8417   -3.3042    0.0000 C   0  0  0  0  0  0  0  0  0  0  0  0
    5.5542    0.9583    0.0000 C   0  0  0  0  0  0  0  0  0  0  0  0
    5.0042   -4.9667    0.0000 C   0  0  0  0  0  0  0  0  0  0  0  0
    1.1542   -3.2167    0.0000 O   0  0  0  0  0  0  0  0  0  0  0  0
    4.2417    0.5958    0.0000 O   0  0  0  0  0  0  0  0  0  0  0  0
    2.0167   -3.3167    0.0000 O   0  0  0  0  0  0  0  0  0  0  0  0
    2.5917   -1.3292    0.0000 O   0  0  0  0  0  0  0  0  0  0  0  0
    5.7917   -5.0792    0.0000 O   0  0  0  0  0  0  0  0  0  0  0  0
    5.3417    1.7208    0.0000 C   0  0  0  0  0  0  0  0  0  0  0  0
    4.7167   -4.2292    0.0000 O   0  0  0  0  0  0  0  0  0  0  0  0
    6.0042   -1.7292    0.0000 C   0  0  0  0  0  0  0  0  0  0  0  0
    5.8917   -0.7667    0.0000 C   0  0  0  0  0  0  0  0  0  0  0  0
    3.9417   -4.1167    0.0000 C   0  0  0  0  0  0  0  0  0  0  0  0
    0.7167   -1.5667    0.0000 C   0  0  0  0  0  0  0  0  0  0  0  0
    2.6292   -0.5417    0.0000 C   0  0  0  0  0  0  0  0  0  0  0  0
    6.3167    0.7583    0.0000 C   0  0  0  0  0  0  0  0  0  0  0  0
    4.5292   -5.5917    0.0000 C   0  0  0  0  0  0  0  0  0  0  0  0
    4.5917    1.9208    0.0000 C   0  0  0  0  0  0  0  0  0  0  0  0
    4.6542   -2.5292    0.0000 H   0  0  0  0  0  0  0  0  0  0  0  0
    5.3417   -2.1292    0.0000 H   0  0  0  0  0  0  0  0  0  0  0  0
  2  1  1  0
  3  1  1  0
  4  6  1  0
  5  4  1  0
  6 13  1  0
  7  2  1  0
  8  4  1  0
  9  5  1  0
  1 10  1  6
 11  8  2  0
 12  1  1  0
 13 12  1  0
 14 10  1  0
 15  7  1  0
 16 15  2  0
 17 16  1  0
 18 14  1  0
 19 26  1  0
 20  9  2  0
 21 14  2  0
  5 22  1  1
  6 23  1  6
 24 19  2  0
 25 18  2  0
 26 29  1  0
  3 27  1  0
  3 28  1  0
 29 16  1  0
 30 11  1  0
 13 31  1  6
 32 18  1  0
 33 19  1  0
 34 25  1  0
  7 35  1  1
  2 36  1  6
  3  2  1  0
  7  6  1  0
 17  5  1  0
  9 11  1  0
M  END

> <chembl_id>
CHEMBL6504

> <chembl_pref_name>
None

$$$$

     RDKit          2D

 16 17  0  0  0  0  0  0  0  0999 V2000
    5.4500   -3.5917    0.0000 C   0  0  0  0  0  0  0  0  0  0  0  0
    5.4500   -4.4167    0.0000 C   0  0  0  0  0  0  0  0  0  0  0  0
    4.7375   -3.1750    0.0000 C   0  0  0  0  0  0  0  0  0  0  0  0
    6.1667   -3.1792    0.0000 C   0  0  0  0  0  0  0  0  0  0  0  0
    4.0292   -3.5917    0.0000 N   0  0  0  0  0  0  0  0  0  0  0  0
    4.7375   -4.8250    0.0000 C   0  0  0  0  0  0  0  0  0  0  0  0
    4.0292   -4.4167    0.0000 C   0  0  0  0  0  0  0  0  0  0  0  0
    6.1667   -2.3542    0.0000 O   0  0  0  0  0  0  0  0  0  0  0  0
    4.7417   -7.3000    0.0000 N   0  0  0  0  0  0  0  0  0  0  0  0
    4.7375   -5.6500    0.0000 C   0  0  0  0  0  0  0  0  0  0  0  0
    6.8792   -3.5917    0.0000 N   0  0  0  0  0  0  0  0  0  0  0  0
    4.7375   -2.3500    0.0000 Cl  0  0  0  0  0  0  0  0  0  0  0  0
    5.4542   -6.8875    0.0000 C   0  0  0  0  0  0  0  0  0  0  0  0
    4.0292   -6.8917    0.0000 C   0  0  0  0  0  0  0  0  0  0  0  0
    4.0292   -6.0625    0.0000 C   0  0  0  0  0  0  0  0  0  0  0  0
    5.4542   -6.0625    0.0000 C   0  0  0  0  0  0  0  0  0  0  0  0
  2  1  2  0
  3  1  1  0
  4  1  1  0
  5  3  2  0
  6  2  1  0
  7  5  1  0
  8  4  2  0
  9 13  1  0
 10  6  1  0
 11  4  1  0
 12  3  1  0
 13 16  2  0
 14 15  1  0
 15 10  2  0
 16 10  1  0
  7  6  2  0
 14  9  2  0
M  END

> <chembl_id>
CHEMBL6581

> <chembl_pref_name>
None

$$$$

     RDKit          2D

 24 26  0  0  0  0  0  0  0  0999 V2000
    3.0736  -14.5291    0.0000 C   0  0  0  0  0  0  0  0  0  0  0  0
    3.0724  -15.3565    0.0000 C   0  0  0  0  0  0  0  0  0  0  0  0
    3.7872  -15.7694    0.0000 C   0  0  0  0  0  0  0  0  0  0  0  0
    4.5037  -15.3560    0.0000 C   0  0  0  0  0  0  0  0  0  0  0  0
    3.7854  -14.1164    0.0000 C   0  0  0  0  0  0  0  0  0  0  0  0
    4.5003  -14.5246    0.0000 C   0  0  0  0  0  0  0  0  0  0  0  0
    5.1094  -13.9709    0.0000 N   0  0  0  0  0  0  0  0  0  0  0  0
    4.7711  -13.2204    0.0000 C   0  0  0  0  0  0  0  0  0  0  0  0
    3.9528  -13.3104    0.0000 C   0  0  0  0  0  0  0  0  0  0  0  0
    5.1802  -12.5040    0.0000 C   0  0  0  0  0  0  0  0  0  0  0  0
    5.9172  -14.1387    0.0000 N   0  0  0  0  0  0  0  0  0  0  0  0
    6.1758  -14.9221    0.0000 C   0  0  0  0  0  0  0  0  0  0  0  0
    6.9836  -15.0898    0.0000 C   0  0  0  0  0  0  0  0  0  0  0  0
    5.6266  -15.5378    0.0000 O   0  0  0  0  0  0  0  0  0  0  0  0
    7.2389  -15.8730    0.0000 C   0  0  0  0  0  0  0  0  0  0  0  0
    8.0458  -16.0410    0.0000 C   0  0  0  0  0  0  0  0  0  0  0  0
    8.5959  -15.4249    0.0000 C   0  0  0  0  0  0  0  0  0  0  0  0
    8.3335  -14.6383    0.0000 C   0  0  0  0  0  0  0  0  0  0  0  0
    7.5272  -14.4741    0.0000 C   0  0  0  0  0  0  0  0  0  0  0  0
    9.4039  -15.5916    0.0000 Cl  0  0  0  0  0  0  0  0  0  0  0  0
    8.3041  -16.8245    0.0000 S   0  0  0  0  0  0  0  0  0  0  0  0
    8.5125  -17.6167    0.0000 N   0  0  0  0  0  0  0  0  0  0  0  0
    9.0951  -16.5903    0.0000 O   0  0  0  0  0  0  0  0  0  0  0  0
    7.5148  -17.0647    0.0000 O   0  0  0  0  0  0  0  0  0  0  0  0
 11 12  1  0
  2  3  1  0
 12 13  1  0
  1  2  2  0
 12 14  2  0
  3  4  2  0
 13 15  2  0
  4  6  1  0
 15 16  1  0
  6  7  1  0
 16 17  2  0
  7  8  1  0
 17 18  1  0
  8  9  1  0
 18 19  2  0
 19 13  1  0
  9  5  1  0
 17 20  1  0
  5  1  1  0
 16 21  1  0
  8 10  1  0
 21 22  1  0
  5  6  2  0
 21 23  2  0
  7 11  1  0
 21 24  2  0
M  END

> <chembl_id>
CHEMBL406

> <chembl_pref_name>
INDAPAMIDE

$$$$

     RDKit          2D

 35 38  0  0  0  0  0  0  0  0999 V2000
    2.1875   -6.8667    0.0000 C   0  0  0  0  0  0  0  0  0  0  0  0
    2.1917   -6.0417    0.0000 C   0  0  0  0  0  0  0  0  0  0  0  0
    3.6167   -6.8792    0.0000 C   0  0  0  0  0  0  0  0  0  0  0  0
   12.0042   -6.0292    0.0000 N   0  0  0  0  0  0  0  0  0  0  0  0
    2.9042   -5.6292    0.0000 O   0  0  0  0  0  0  0  0  0  0  0  0
   12.0000   -6.7542    0.0000 C   0  0  0  0  0  0  0  0  0  0  0  0
   10.7625   -6.0167    0.0000 C   0  0  0  0  0  0  0  0  0  0  0  0
    1.4750   -7.2917    0.0000 C   0  0  0  0  0  0  0  0  0  0  0  0
   11.3792   -5.6667    0.0000 C   0  0  0  0  0  0  0  0  0  0  0  0
    3.6167   -6.0417    0.0000 C   0  0  0  0  0  0  0  0  0  0  0  0
   10.7542   -6.7417    0.0000 S   0  0  0  0  0  0  0  0  0  0  0  0
    0.7625   -6.8792    0.0000 C   0  0  0  0  0  0  0  0  0  0  0  0
    1.4750   -5.6292    0.0000 C   0  0  0  0  0  0  0  0  0  0  0  0
    0.7625   -6.0542    0.0000 C   0  0  0  0  0  0  0  0  0  0  0  0
   10.0417   -5.6167    0.0000 C   0  0  0  0  0  0  0  0  0  0  0  0
    4.3292   -7.2917    0.0000 C   0  0  0  0  0  0  0  0  0  0  0  0
   12.5792   -7.3292    0.0000 O   0  0  0  0  0  0  0  0  0  0  0  0
   11.3750   -4.9417    0.0000 O   0  0  0  0  0  0  0  0  0  0  0  0
    9.3292   -6.0292    0.0000 C   0  0  0  0  0  0  0  0  0  0  0  0
    5.0417   -6.8667    0.0000 N   0  0  0  0  0  0  0  0  0  0  0  0
    0.0417   -7.2792    0.0000 O   0  0  0  0  0  0  0  0  0  0  0  0
    7.9042   -6.8417    0.0000 C   0  0  0  0  0  0  0  0  0  0  0  0
    1.4792   -8.1167    0.0000 C   0  0  0  0  0  0  0  0  0  0  0  0
    4.3375   -5.6417    0.0000 C   0  0  0  0  0  0  0  0  0  0  0  0
    4.3292   -6.4542    0.0000 C   0  0  0  0  0  0  0  0  0  0  0  0
    8.6125   -5.6167    0.0000 C   0  0  0  0  0  0  0  0  0  0  0  0
    9.3292   -6.8542    0.0000 C   0  0  0  0  0  0  0  0  0  0  0  0
    1.4667   -4.8042    0.0000 C   0  0  0  0  0  0  0  0  0  0  0  0
    0.0500   -5.6417    0.0000 C   0  0  0  0  0  0  0  0  0  0  0  0
    7.9042   -6.0292    0.0000 C   0  0  0  0  0  0  0  0  0  0  0  0
    8.6167   -7.2667    0.0000 C   0  0  0  0  0  0  0  0  0  0  0  0
    7.1917   -7.2542    0.0000 O   0  0  0  0  0  0  0  0  0  0  0  0
    6.4667   -6.8542    0.0000 C   0  0  0  0  0  0  0  0  0  0  0  0
    5.7625   -7.2792    0.0000 C   0  0  0  0  0  0  0  0  0  0  0  0
    5.0292   -6.0417    0.0000 C   0  0  0  0  0  0  0  0  0  0  0  0
  2  1  1  0
  3  1  1  0
  4  9  1  0
  5  2  1  0
  6 11  1  0
  7 15  2  0
  8  1  2  0
  9  7  1  0
 10  3  1  0
 11  7  1  0
 12  8  1  0
 13  2  2  0
 14 13  1  0
 15 19  1  0
 16  3  1  0
 17  6  2  0
 18  9  2  0
 19 27  2  0
 20 16  1  0
 21 12  1  0
 22 32  1  0
 23  8  1  0
 24 10  1  0
 25 10  1  0
 26 30  2  0
 27 31  1  0
 28 13  1  0
 29 14  1  0
 30 22  1  0
 31 22  2  0
 32 33  1  0
 33 34  1  0
 34 20  1  0
 35 20  1  0
  5 10  1  0
 14 12  2  0
 19 26  1  0
  4  6  1  0
M  END

> <chembl_id>
CHEMBL269773

> <chembl_pref_name>
None

$$$$

     RDKit          2D

 28 29  0  0  1  0  0  0  0  0999 V2000
   -0.4833   -0.4125    0.0000 C   0  0  0  0  0  0  0  0  0  0  0  0
    0.1167   -1.1750    0.0000 C   0  0  0  0  0  0  0  0  0  0  0  0
   -0.8125   -0.9042    0.0000 C   0  0  0  0  0  0  0  0  0  0  0  0
    0.0917   -0.5667    0.0000 C   0  0  0  0  0  0  0  0  0  0  0  0
   -0.4458   -1.3792    0.0000 C   0  0  0  0  0  0  0  0  0  0  0  0
    3.7292   -1.7042    0.0000 C   0  0  0  0  0  0  0  0  0  0  0  0
    3.8500   -2.2917    0.0000 C   0  0  0  0  0  0  0  0  0  0  0  0
    4.3167   -1.5875    0.0000 C   0  0  0  0  0  0  0  0  0  0  0  0
    0.6167   -1.5000    0.0000 C   0  0  0  0  0  0  0  0  0  0  0  0
    3.7750   -0.4375    0.0000 C   0  0  0  0  0  0  0  0  0  0  0  0
   -0.6958    0.1583    0.0000 O   0  0  0  0  0  0  0  0  0  0  0  0
    1.1542   -1.2375    0.0000 C   0  0  0  0  0  0  0  0  0  0  0  0
    3.7792   -1.0417    0.0000 O   0  0  0  0  0  0  0  0  0  0  0  0
    2.1917   -1.3042    0.0000 C   0  0  0  0  0  0  0  0  0  0  0  0
    1.6000   -0.0417    0.0000 C   0  0  0  0  0  0  0  0  0  0  0  0
    2.1917   -0.0500    0.0000 C   0  0  0  0  0  0  0  0  0  0  0  0
   -0.6083   -1.9542    0.0000 O   0  0  0  0  0  0  0  0  0  0  0  0
    3.2292   -1.3750    0.0000 C   0  0  0  0  0  0  0  0  0  0  0  0
    2.7000   -1.6375    0.0000 C   0  0  0  0  0  0  0  0  0  0  0  0
    4.2875   -0.1375    0.0000 O   0  0  0  0  0  0  0  0  0  0  0  0
    2.2417   -1.9000    0.0000 O   0  0  0  0  0  0  0  0  0  0  0  0
    1.6542   -1.5667    0.0000 C   0  0  0  0  0  0  0  0  0  0  0  0
    0.5667   -0.2042    0.0000 C   0  0  0  0  0  0  0  0  0  0  0  0
    3.2542   -0.1417    0.0000 C   0  0  0  0  0  0  0  0  0  0  0  0
    1.1292   -0.4167    0.0000 C   0  0  0  0  0  0  0  0  0  0  0  0
    2.7292   -0.4417    0.0000 C   0  0  0  0  0  0  0  0  0  0  0  0
    2.2917   -0.7042    0.0000 C   0  0  0  0  0  0  0  0  0  0  0  0
    4.8750   -0.2542    0.0000 C   0  0  0  0  0  0  0  0  0  0  0  0
  2  4  1  0
  3  1  1  0
  4  1  1  0
  5  3  1  0
  6 18  1  0
  7  6  1  0
  8  6  1  0
  2  9  1  1
 10 24  1  0
 11  1  2  0
 12  9  2  0
 13 10  2  0
 14 22  1  0
 15 25  1  0
 16 15  2  0
  5 17  1  6
 18 19  1  0
 19 14  1  0
 20 10  1  0
 14 21  1  0
 22 12  1  0
  4 23  1  6
 24 26  1  0
 25 23  1  0
 26 16  1  0
 27 14  1  0
 28 20  1  0
  5  2  1  0
  8  7  1  0
M  END

> <chembl_id>
CHEMBL267190

> <chembl_pref_name>
None

$$$$

     RDKit          2D

 21 23  0  0  0  0  0  0  0  0999 V2000
    4.3875   -1.3542    0.0000 C   0  0  0  0  0  0  0  0  0  0  0  0
    3.6167   -1.0375    0.0000 N   0  0  0  0  0  0  0  0  0  0  0  0
    2.7542   -2.2500    0.0000 C   0  0  0  0  0  0  0  0  0  0  0  0
    4.9167   -0.7292    0.0000 C   0  0  0  0  0  0  0  0  0  0  0  0
    2.9000   -1.4292    0.0000 C   0  0  0  0  0  0  0  0  0  0  0  0
    4.4917   -0.0292    0.0000 N   0  0  0  0  0  0  0  0  0  0  0  0
    3.3000   -2.8625    0.0000 C   0  0  0  0  0  0  0  0  0  0  0  0
    4.1125   -2.8125    0.0000 N   0  0  0  0  0  0  0  0  0  0  0  0
    3.6875   -0.2167    0.0000 C   0  0  0  0  0  0  0  0  0  0  0  0
    4.5917   -2.1417    0.0000 C   0  0  0  0  0  0  0  0  0  0  0  0
    5.7417   -0.7792    0.0000 C   0  0  0  0  0  0  0  0  0  0  0  0
    1.9417   -2.3625    0.0000 S   0  0  0  0  0  0  0  0  0  0  0  0
    2.1667   -1.0500    0.0000 C   0  0  0  0  0  0  0  0  0  0  0  0
    1.5792   -1.6167    0.0000 C   0  0  0  0  0  0  0  0  0  0  0  0
    2.9875   -3.6292    0.0000 O   0  0  0  0  0  0  0  0  0  0  0  0
    6.2042   -0.0917    0.0000 O   0  0  0  0  0  0  0  0  0  0  0  0
    6.1125   -1.5250    0.0000 O   0  0  0  0  0  0  0  0  0  0  0  0
    4.5042   -3.5417    0.0000 C   0  0  0  0  0  0  0  0  0  0  0  0
    6.9292   -1.5750    0.0000 C   0  0  0  0  0  0  0  0  0  0  0  0
    7.3000   -2.3167    0.0000 C   0  0  0  0  0  0  0  0  0  0  0  0
    8.1250   -2.3667    0.0000 C   0  0  0  0  0  0  0  0  0  0  0  0
  2  1  1  0
  3  5  2  0
  4  1  2  0
  5  2  1  0
  6  4  1  0
  7  8  1  0
  8 10  1  0
  9  2  1  0
 10  1  1  0
 11  4  1  0
 12  3  1  0
 13  5  1  0
 14 13  2  0
 15  7  2  0
 16 11  2  0
 17 11  1  0
 18  8  1  0
 19 17  1  0
 20 19  1  0
 21 20  1  0
  6  9  2  0
  3  7  1  0
 14 12  1  0
M  END

> <chembl_id>
CHEMBL268626

> <chembl_pref_name>
None

$$$$

     RDKit          2D

 25 27  0  0  0  0  0  0  0  0999 V2000
    3.7417   -0.0917    0.0000 N   0  0  0  0  0  0  0  0  0  0  0  0
    3.4792   -0.6375    0.0000 C   0  0  0  0  0  0  0  0  0  0  0  0
    3.9292   -1.0500    0.0000 O   0  0  0  0  0  0  0  0  0  0  0  0
    4.3292   -0.1667    0.0000 C   0  0  0  0  0  0  0  0  0  0  0  0
    4.4417   -0.7542    0.0000 C   0  0  0  0  0  0  0  0  0  0  0  0
   -3.0333   -1.0167    0.0000 N   0  0  0  0  0  0  0  0  0  0  0  0
   -2.5083   -1.3167    0.0000 O   0  0  0  0  0  0  0  0  0  0  0  0
   -1.9958   -0.4125    0.0000 C   0  0  0  0  0  0  0  0  0  0  0  0
   -1.9958   -1.0125    0.0000 C   0  0  0  0  0  0  0  0  0  0  0  0
    2.8917   -0.7542    0.0000 C   0  0  0  0  0  0  0  0  0  0  0  0
   -3.0333   -0.4167    0.0000 C   0  0  0  0  0  0  0  0  0  0  0  0
    2.5042   -0.3000    0.0000 C   0  0  0  0  0  0  0  0  0  0  0  0
    2.7042   -1.3167    0.0000 C   0  0  0  0  0  0  0  0  0  0  0  0
    1.7167   -0.9792    0.0000 C   0  0  0  0  0  0  0  0  0  0  0  0
    2.1167   -1.4292    0.0000 C   0  0  0  0  0  0  0  0  0  0  0  0
    1.9167   -0.4125    0.0000 C   0  0  0  0  0  0  0  0  0  0  0  0
    4.7417    0.2708    0.0000 C   0  0  0  0  0  0  0  0  0  0  0  0
    4.9917   -1.0125    0.0000 C   0  0  0  0  0  0  0  0  0  0  0  0
    1.1167   -0.9792    0.0000 O   0  0  0  0  0  0  0  0  0  0  0  0
   -1.4708   -1.3042    0.0000 C   0  0  0  0  0  0  0  0  0  0  0  0
   -3.4583    0.0000    0.0000 C   0  0  0  0  0  0  0  0  0  0  0  0
    0.6042   -1.2875    0.0000 C   0  0  0  0  0  0  0  0  0  0  0  0
   -0.9583   -1.0042    0.0000 C   0  0  0  0  0  0  0  0  0  0  0  0
    0.0917   -0.9917    0.0000 C   0  0  0  0  0  0  0  0  0  0  0  0
   -0.4333   -1.3000    0.0000 C   0  0  0  0  0  0  0  0  0  0  0  0
  2  1  2  0
  3  2  1  0
  4  1  1  0
  5  4  2  0
  6  7  1  0
  7  9  1  0
  8  9  2  0
  9 20  1  0
 10  2  1  0
 11  8  1  0
 12 10  1  0
 13 10  2  0
 14 15  2  0
 15 13  1  0
 16 12  2  0
 17  4  1  0
 18  5  1  0
 19 14  1  0
 20 23  1  0
 21 11  1  0
 22 19  1  0
 23 25  1  0
 24 22  1  0
 25 24  1  0
  5  3  1  0
 14 16  1  0
  6 11  2  0
M  END

> <chembl_id>
CHEMBL6595

> <chembl_pref_name>
None

$$$$

     RDKit          2D

 15 17  0  0  0  0  0  0  0  0999 V2000
    3.4792   -3.0167    0.0000 C   0  0  0  0  0  0  0  0  0  0  0  0
    3.4792   -3.8417    0.0000 C   0  0  0  0  0  0  0  0  0  0  0  0
    2.7542   -4.2542    0.0000 N   0  0  0  0  0  0  0  0  0  0  0  0
    2.0417   -3.0125    0.0000 C   0  0  0  0  0  0  0  0  0  0  0  0
    2.0417   -3.8375    0.0000 C   0  0  0  0  0  0  0  0  0  0  0  0
    4.3042   -3.0167    0.0000 O   0  0  0  0  0  0  0  0  0  0  0  0
    3.2292   -2.2292    0.0000 O   0  0  0  0  0  0  0  0  0  0  0  0
    4.1917   -4.2542    0.0000 O   0  0  0  0  0  0  0  0  0  0  0  0
    2.7500   -5.0792    0.0000 C   0  0  0  0  0  0  0  0  0  0  0  0
    1.3292   -2.6000    0.0000 C   0  0  0  0  0  0  0  0  0  0  0  0
    1.3292   -4.2542    0.0000 C   0  0  0  0  0  0  0  0  0  0  0  0
    3.8917   -1.7500    0.0000 C   0  0  0  0  0  0  0  0  0  0  0  0
    4.5667   -2.2292    0.0000 C   0  0  0  0  0  0  0  0  0  0  0  0
    0.6167   -3.0167    0.0000 C   0  0  0  0  0  0  0  0  0  0  0  0
    0.6167   -3.8417    0.0000 C   0  0  0  0  0  0  0  0  0  0  0  0
  2  1  1  0
  3  2  1  0
  4  1  1  0
  5  4  1  0
  6  1  1  0
  7  1  1  0
  8  2  2  0
  9  3  1  0
 10  4  2  0
 11  5  2  0
 12  7  1  0
 13  6  1  0
 14 10  1  0
 15 14  2  0
 12 13  1  0
  3  5  1  0
 15 11  1  0
M  END

> <chembl_id>
CHEMBL6580

> <chembl_pref_name>
None

$$$$

     RDKit          2D

 21 24  0  0  0  0  0  0  0  0999 V2000
    2.7542   -4.2292    0.0000 N   0  0  0  0  0  0  0  0  0  0  0  0
    3.4792   -2.9917    0.0000 C   0  0  0  0  0  0  0  0  0  0  0  0
    3.4792   -3.8167    0.0000 C   0  0  0  0  0  0  0  0  0  0  0  0
    2.0417   -2.9792    0.0000 C   0  0  0  0  0  0  0  0  0  0  0  0
    2.0417   -3.8042    0.0000 C   0  0  0  0  0  0  0  0  0  0  0  0
    2.7500   -5.0500    0.0000 C   0  0  0  0  0  0  0  0  0  0  0  0
    2.0292   -5.4542    0.0000 N   0  0  0  0  0  0  0  0  0  0  0  0
    3.2292   -2.2042    0.0000 O   0  0  0  0  0  0  0  0  0  0  0  0
    4.3042   -2.9917    0.0000 O   0  0  0  0  0  0  0  0  0  0  0  0
    4.1917   -4.2292    0.0000 O   0  0  0  0  0  0  0  0  0  0  0  0
    0.7667   -6.5292    0.0000 O   0  0  0  0  0  0  0  0  0  0  0  0
    1.3292   -2.5667    0.0000 C   0  0  0  0  0  0  0  0  0  0  0  0
    1.3292   -4.2292    0.0000 C   0  0  0  0  0  0  0  0  0  0  0  0
    1.2417   -5.1792    0.0000 C   0  0  0  0  0  0  0  0  0  0  0  0
    2.1792   -6.2667    0.0000 C   0  0  0  0  0  0  0  0  0  0  0  0
    3.8917   -1.7167    0.0000 C   0  0  0  0  0  0  0  0  0  0  0  0
    4.5667   -2.2042    0.0000 C   0  0  0  0  0  0  0  0  0  0  0  0
    1.5542   -6.8125    0.0000 C   0  0  0  0  0  0  0  0  0  0  0  0
    0.6292   -5.7167    0.0000 C   0  0  0  0  0  0  0  0  0  0  0  0
    0.6167   -2.9917    0.0000 C   0  0  0  0  0  0  0  0  0  0  0  0
    0.6167   -3.8167    0.0000 C   0  0  0  0  0  0  0  0  0  0  0  0
  2  3  1  0
  3  1  1  0
  4  5  1  0
  5  1  1  0
  6  1  1  0
  7  6  1  0
  8  2  1  0
  9  2  1  0
 10  3  2  0
 11 18  1  0
 12  4  2  0
 13  5  2  0
 14  7  1  0
 15  7  1  0
 16  8  1  0
 17  9  1  0
 18 15  1  0
 19 14  1  0
 20 21  2  0
 21 13  1  0
  2  4  1  0
 11 19  1  0
 12 20  1  0
 16 17  1  0
M  END

> <chembl_id>
CHEMBL6460

> <chembl_pref_name>
None

$$$$

     RDKit          2D

 66 66  0  0  1  0  0  0  0  0999 V2000
   10.0625   -4.1875    0.0000 N   0  0  0  0  0  0  0  0  0  0  0  0
    9.3500   -3.7667    0.0000 C   0  0  0  0  0  0  0  0  0  0  0  0
   11.0042   -3.0500    0.0000 C   0  0  0  0  0  0  0  0  0  0  0  0
    0.0375   -4.1000    0.0000 C   0  0  0  0  0  0  0  0  0  0  0  0
    0.7625   -3.6917    0.0000 C   0  0  0  0  0  0  0  0  0  0  0  0
    7.2000   -4.1625    0.0000 C   0  0  0  0  0  0  0  0  0  0  0  0
   -0.6708   -3.6792    0.0000 N   0  0  0  0  0  0  0  0  0  0  0  0
    7.9167   -3.7542    0.0000 N   0  0  0  0  0  0  0  0  0  0  0  0
    5.7667   -4.1500    0.0000 N   0  0  0  0  0  0  0  0  0  0  0  0
    8.6292   -4.1750    0.0000 C   0  0  0  0  0  0  0  0  0  0  0  0
   10.8167   -3.8542    0.0000 C   0  0  0  0  0  0  0  0  0  0  0  0
   -1.3958   -4.0792    0.0000 C   0  0  0  0  0  0  0  0  0  0  0  0
    5.0542   -3.7292    0.0000 C   0  0  0  0  0  0  0  0  0  0  0  0
   11.7875   -2.8042    0.0000 N   0  0  0  0  0  0  0  0  0  0  0  0
    2.9042   -4.1250    0.0000 C   0  0  0  0  0  0  0  0  0  0  0  0
    1.4667   -4.1042    0.0000 N   0  0  0  0  0  0  0  0  0  0  0  0
    3.6167   -3.7167    0.0000 N   0  0  0  0  0  0  0  0  0  0  0  0
    6.4875   -3.7417    0.0000 C   0  0  0  0  0  0  0  0  0  0  0  0
    4.3375   -4.1292    0.0000 C   0  0  0  0  0  0  0  0  0  0  0  0
   -2.1083   -3.6667    0.0000 C   0  0  0  0  0  0  0  0  0  0  0  0
    4.3292   -4.9625    0.0000 C   0  0  0  0  0  0  0  0  0  0  0  0
   -2.1000   -2.8417    0.0000 C   0  0  0  0  0  0  0  0  0  0  0  0
   11.9667   -2.0000    0.0000 N   0  0  0  0  0  0  0  0  0  0  0  0
   12.7542   -1.7417    0.0000 C   0  0  0  0  0  0  0  0  0  0  0  0
   -2.8250   -4.0667    0.0000 N   0  0  0  0  0  0  0  0  0  0  0  0
    2.1875   -3.7042    0.0000 C   0  0  0  0  0  0  0  0  0  0  0  0
    5.0417   -5.3792    0.0000 C   0  0  0  0  0  0  0  0  0  0  0  0
   -1.3833   -2.4292    0.0000 C   0  0  0  0  0  0  0  0  0  0  0  0
   -2.8333   -4.9000    0.0000 C   0  0  0  0  0  0  0  0  0  0  0  0
    9.3542   -2.9417    0.0000 O   0  0  0  0  0  0  0  0  0  0  0  0
   10.3917   -2.4917    0.0000 O   0  0  0  0  0  0  0  0  0  0  0  0
    2.9250   -1.6417    0.0000 C   0  0  0  0  0  0  0  0  0  0  0  0
    0.7667   -2.8625    0.0000 O   0  0  0  0  0  0  0  0  0  0  0  0
    7.1917   -4.9875    0.0000 O   0  0  0  0  0  0  0  0  0  0  0  0
    5.0625   -2.9042    0.0000 O   0  0  0  0  0  0  0  0  0  0  0  0
   -1.4000   -4.9125    0.0000 O   0  0  0  0  0  0  0  0  0  0  0  0
    2.8917   -4.9500    0.0000 O   0  0  0  0  0  0  0  0  0  0  0  0
   13.1792   -2.4500    0.0000 O   0  0  0  0  0  0  0  0  0  0  0  0
    0.0292   -4.9250    0.0000 C   0  0  0  0  0  0  0  0  0  0  0  0
   -1.3750   -1.6042    0.0000 O   0  0  0  0  0  0  0  0  0  0  0  0
    5.0292   -6.2125    0.0000 O   0  0  0  0  0  0  0  0  0  0  0  0
   -3.5500   -5.3042    0.0000 O   0  0  0  0  0  0  0  0  0  0  0  0
    3.6417   -1.2375    0.0000 O   0  0  0  0  0  0  0  0  0  0  0  0
    2.1917   -2.8792    0.0000 C   0  0  0  0  0  0  0  0  0  0  0  0
    8.6250   -5.0042    0.0000 C   0  0  0  0  0  0  0  0  0  0  0  0
   10.1417   -5.0042    0.0000 C   0  0  0  0  0  0  0  0  0  0  0  0
    6.4917   -2.9167    0.0000 C   0  0  0  0  0  0  0  0  0  0  0  0
    2.9167   -2.4667    0.0000 C   0  0  0  0  0  0  0  0  0  0  0  0
    5.7625   -4.9792    0.0000 O   0  0  0  0  0  0  0  0  0  0  0  0
   -0.6708   -2.8500    0.0000 O   0  0  0  0  0  0  0  0  0  0  0  0
    2.2125   -1.2250    0.0000 O   0  0  0  0  0  0  0  0  0  0  0  0
   11.3667   -4.4792    0.0000 C   0  0  0  0  0  0  0  0  0  0  0  0
    0.7417   -5.3417    0.0000 O   0  0  0  0  0  0  0  0  0  0  0  0
   11.3542   -1.4417    0.0000 C   0  0  0  0  0  0  0  0  0  0  0  0
   13.1500   -1.0167    0.0000 C   0  0  0  0  0  0  0  0  0  0  0  0
   10.9500   -5.1917    0.0000 C   0  0  0  0  0  0  0  0  0  0  0  0
   -2.1208   -5.3167    0.0000 C   0  0  0  0  0  0  0  0  0  0  0  0
   -0.6958   -5.3292    0.0000 C   0  0  0  0  0  0  0  0  0  0  0  0
    9.3375   -5.4167    0.0000 C   0  0  0  0  0  0  0  0  0  0  0  0
    7.9042   -5.4042    0.0000 C   0  0  0  0  0  0  0  0  0  0  0  0
    5.7792   -2.4917    0.0000 C   0  0  0  0  0  0  0  0  0  0  0  0
    7.2167   -2.5042    0.0000 C   0  0  0  0  0  0  0  0  0  0  0  0
   13.9750   -1.0042    0.0000 C   0  0  0  0  0  0  0  0  0  0  0  0
   11.5375   -0.6292    0.0000 C   0  0  0  0  0  0  0  0  0  0  0  0
   14.3750   -0.2792    0.0000 C   0  0  0  0  0  0  0  0  0  0  0  0
   10.9292   -0.0792    0.0000 C   0  0  0  0  0  0  0  0  0  0  0  0
  2  1  1  0
 11  3  1  1
  4  5  1  0
  5 16  1  0
  6  8  1  0
  4  7  1  6
 10  8  1  6
 18  9  1  1
 10  2  1  0
 11  1  1  0
 12  7  1  0
 13  9  1  0
 14  3  1  0
 15 17  1  0
 26 16  1  1
 19 17  1  6
 18  6  1  0
 19 13  1  0
 20 12  1  0
 19 21  1  0
 20 22  1  1
 23 14  1  0
 24 23  1  0
 25 20  1  0
 26 15  1  0
 27 21  1  0
 28 22  1  0
 29 25  1  0
 30  2  2  0
 31  3  2  0
 32 48  1  0
 33  5  2  0
 34  6  2  0
 35 13  2  0
 36 12  2  0
 37 15  2  0
 38 24  2  0
  4 39  1  0
 40 28  2  0
 41 27  2  0
 42 29  2  0
 43 32  2  0
 26 44  1  0
 10 45  1  0
 46  1  1  0
 18 47  1  0
 48 44  1  0
 49 27  1  0
 50 28  1  0
 51 32  1  0
 11 52  1  0
 39 53  1  6
 54 23  1  0
 55 24  1  0
 56 46  1  0
 57 29  1  0
 58 39  1  0
 59 45  1  0
 60 45  1  0
 61 47  1  0
 62 47  1  0
 63 55  1  0
 64 54  1  0
 65 63  1  0
 66 64  1  0
 52 56  1  0
M  END

> <chembl_id>
CHEMBL6559

> <chembl_pref_name>
None

$$$$

     RDKit          2D

 65 65  0  0  1  0  0  0  0  0999 V2000
   10.6042   -3.6250    0.0000 N   0  0  0  0  0  0  0  0  0  0  0  0
    9.8917   -3.2042    0.0000 C   0  0  0  0  0  0  0  0  0  0  0  0
   11.5500   -2.4875    0.0000 C   0  0  0  0  0  0  0  0  0  0  0  0
    0.5792   -3.5375    0.0000 C   0  0  0  0  0  0  0  0  0  0  0  0
    1.3042   -3.1292    0.0000 C   0  0  0  0  0  0  0  0  0  0  0  0
    7.7417   -3.6000    0.0000 C   0  0  0  0  0  0  0  0  0  0  0  0
   -0.1333   -3.1125    0.0000 N   0  0  0  0  0  0  0  0  0  0  0  0
    8.4625   -3.1917    0.0000 N   0  0  0  0  0  0  0  0  0  0  0  0
    6.3125   -3.5875    0.0000 N   0  0  0  0  0  0  0  0  0  0  0  0
    9.1792   -3.6167    0.0000 C   0  0  0  0  0  0  0  0  0  0  0  0
   11.3667   -3.2917    0.0000 C   0  0  0  0  0  0  0  0  0  0  0  0
   -0.8458   -3.5167    0.0000 C   0  0  0  0  0  0  0  0  0  0  0  0
    5.6000   -3.1667    0.0000 C   0  0  0  0  0  0  0  0  0  0  0  0
   12.3292   -2.2417    0.0000 N   0  0  0  0  0  0  0  0  0  0  0  0
    3.4500   -3.5625    0.0000 C   0  0  0  0  0  0  0  0  0  0  0  0
    2.0167   -3.5417    0.0000 N   0  0  0  0  0  0  0  0  0  0  0  0
    4.1667   -3.1542    0.0000 N   0  0  0  0  0  0  0  0  0  0  0  0
    7.0292   -3.1792    0.0000 C   0  0  0  0  0  0  0  0  0  0  0  0
    4.8792   -3.5750    0.0000 C   0  0  0  0  0  0  0  0  0  0  0  0
   -1.5625   -3.1042    0.0000 C   0  0  0  0  0  0  0  0  0  0  0  0
    4.8750   -4.4000    0.0000 C   0  0  0  0  0  0  0  0  0  0  0  0
   -1.5583   -2.2792    0.0000 C   0  0  0  0  0  0  0  0  0  0  0  0
   12.5125   -1.4375    0.0000 N   0  0  0  0  0  0  0  0  0  0  0  0
   13.3000   -1.1875    0.0000 C   0  0  0  0  0  0  0  0  0  0  0  0
   -2.2833   -3.5125    0.0000 N   0  0  0  0  0  0  0  0  0  0  0  0
    2.7292   -3.1417    0.0000 C   0  0  0  0  0  0  0  0  0  0  0  0
   -0.8333   -1.8667    0.0000 C   0  0  0  0  0  0  0  0  0  0  0  0
    5.5875   -4.8167    0.0000 C   0  0  0  0  0  0  0  0  0  0  0  0
   -2.2875   -4.3375    0.0000 C   0  0  0  0  0  0  0  0  0  0  0  0
    9.9042   -2.3792    0.0000 O   0  0  0  0  0  0  0  0  0  0  0  0
   10.9375   -1.9292    0.0000 O   0  0  0  0  0  0  0  0  0  0  0  0
    3.4667   -1.0792    0.0000 C   0  0  0  0  0  0  0  0  0  0  0  0
    1.3125   -2.3000    0.0000 O   0  0  0  0  0  0  0  0  0  0  0  0
    7.7375   -4.4250    0.0000 O   0  0  0  0  0  0  0  0  0  0  0  0
   -0.8583   -4.3500    0.0000 O   0  0  0  0  0  0  0  0  0  0  0  0
    5.6042   -2.3417    0.0000 O   0  0  0  0  0  0  0  0  0  0  0  0
    3.4417   -4.3792    0.0000 O   0  0  0  0  0  0  0  0  0  0  0  0
   13.7042   -1.9042    0.0000 O   0  0  0  0  0  0  0  0  0  0  0  0
    0.5750   -4.3625    0.0000 C   0  0  0  0  0  0  0  0  0  0  0  0
    5.5792   -5.6500    0.0000 O   0  0  0  0  0  0  0  0  0  0  0  0
   -0.8333   -1.0417    0.0000 O   0  0  0  0  0  0  0  0  0  0  0  0
   -3.0083   -4.7417    0.0000 O   0  0  0  0  0  0  0  0  0  0  0  0
    4.1917   -0.6750    0.0000 O   0  0  0  0  0  0  0  0  0  0  0  0
    2.7417   -2.3167    0.0000 C   0  0  0  0  0  0  0  0  0  0  0  0
    9.1667   -4.4417    0.0000 C   0  0  0  0  0  0  0  0  0  0  0  0
   10.6917   -4.4417    0.0000 C   0  0  0  0  0  0  0  0  0  0  0  0
    7.0417   -2.3542    0.0000 C   0  0  0  0  0  0  0  0  0  0  0  0
    3.4667   -1.9042    0.0000 C   0  0  0  0  0  0  0  0  0  0  0  0
   -0.1208   -2.2875    0.0000 O   0  0  0  0  0  0  0  0  0  0  0  0
    6.3042   -4.4167    0.0000 O   0  0  0  0  0  0  0  0  0  0  0  0
    2.7542   -0.6625    0.0000 O   0  0  0  0  0  0  0  0  0  0  0  0
   11.9167   -3.9167    0.0000 C   0  0  0  0  0  0  0  0  0  0  0  0
    1.2875   -4.7792    0.0000 O   0  0  0  0  0  0  0  0  0  0  0  0
   13.7167   -0.4750    0.0000 C   0  0  0  0  0  0  0  0  0  0  0  0
   11.9042   -0.8792    0.0000 C   0  0  0  0  0  0  0  0  0  0  0  0
   11.4917   -4.6292    0.0000 C   0  0  0  0  0  0  0  0  0  0  0  0
   -1.5750   -4.7542    0.0000 C   0  0  0  0  0  0  0  0  0  0  0  0
   -0.1458   -4.7667    0.0000 C   0  0  0  0  0  0  0  0  0  0  0  0
    8.4500   -4.8417    0.0000 C   0  0  0  0  0  0  0  0  0  0  0  0
    9.8792   -4.8542    0.0000 C   0  0  0  0  0  0  0  0  0  0  0  0
    7.7625   -1.9417    0.0000 C   0  0  0  0  0  0  0  0  0  0  0  0
    6.3292   -1.9292    0.0000 C   0  0  0  0  0  0  0  0  0  0  0  0
   12.0792   -0.0667    0.0000 C   0  0  0  0  0  0  0  0  0  0  0  0
   14.5417   -0.4792    0.0000 C   0  0  0  0  0  0  0  0  0  0  0  0
   11.4750    0.4833    0.0000 C   0  0  0  0  0  0  0  0  0  0  0  0
  2  1  1  0
 11  3  1  1
  4  5  1  0
  5 16  1  0
  6  8  1  0
  4  7  1  6
 10  8  1  6
 18  9  1  1
 10  2  1  0
 11  1  1  0
 12  7  1  0
 13  9  1  0
 14  3  1  0
 15 17  1  0
 26 16  1  1
 19 17  1  6
 18  6  1  0
 19 13  1  0
 20 12  1  0
 19 21  1  0
 20 22  1  1
 23 14  1  0
 24 23  1  0
 25 20  1  0
 26 15  1  0
 27 22  1  0
 28 21  1  0
 29 25  1  0
 30  2  2  0
 31  3  2  0
 32 48  1  0
 33  5  2  0
 34  6  2  0
 35 12  2  0
 36 13  2  0
 37 15  2  0
 38 24  2  0
  4 39  1  0
 40 28  2  0
 41 27  2  0
 42 29  2  0
 43 32  2  0
 26 44  1  0
 10 45  1  0
 46  1  1  0
 18 47  1  0
 48 44  1  0
 49 27  1  0
 50 28  1  0
 51 32  1  0
 11 52  1  0
 39 53  1  6
 54 24  1  0
 55 23  1  0
 56 46  1  0
 57 29  1  0
 58 39  1  0
 59 45  1  0
 60 45  1  0
 61 47  1  0
 62 47  1  0
 63 55  1  0
 64 54  1  0
 65 63  1  0
 52 56  1  0
M  END

> <chembl_id>
CHEMBL266539

> <chembl_pref_name>
None

$$$$

     RDKit          2D

 64 64  0  0  1  0  0  0  0  0999 V2000
   10.5042   -4.5625    0.0000 N   0  0  0  0  0  0  0  0  0  0  0  0
    9.7917   -4.1417    0.0000 C   0  0  0  0  0  0  0  0  0  0  0  0
   11.4500   -3.4250    0.0000 C   0  0  0  0  0  0  0  0  0  0  0  0
    0.4792   -4.4750    0.0000 C   0  0  0  0  0  0  0  0  0  0  0  0
    1.2042   -4.0667    0.0000 C   0  0  0  0  0  0  0  0  0  0  0  0
    7.6417   -4.5375    0.0000 C   0  0  0  0  0  0  0  0  0  0  0  0
   -0.2333   -4.0542    0.0000 N   0  0  0  0  0  0  0  0  0  0  0  0
    8.3625   -4.1292    0.0000 N   0  0  0  0  0  0  0  0  0  0  0  0
    6.2125   -4.5250    0.0000 N   0  0  0  0  0  0  0  0  0  0  0  0
    9.0792   -4.5542    0.0000 C   0  0  0  0  0  0  0  0  0  0  0  0
   11.2667   -4.2292    0.0000 C   0  0  0  0  0  0  0  0  0  0  0  0
   -0.9458   -4.4542    0.0000 C   0  0  0  0  0  0  0  0  0  0  0  0
    5.5000   -4.1042    0.0000 C   0  0  0  0  0  0  0  0  0  0  0  0
   12.2292   -3.1792    0.0000 N   0  0  0  0  0  0  0  0  0  0  0  0
    3.3500   -4.5000    0.0000 C   0  0  0  0  0  0  0  0  0  0  0  0
    1.9167   -4.4792    0.0000 N   0  0  0  0  0  0  0  0  0  0  0  0
    4.0667   -4.0917    0.0000 N   0  0  0  0  0  0  0  0  0  0  0  0
    6.9292   -4.1167    0.0000 C   0  0  0  0  0  0  0  0  0  0  0  0
    4.7792   -4.5042    0.0000 C   0  0  0  0  0  0  0  0  0  0  0  0
   -1.6625   -4.0417    0.0000 C   0  0  0  0  0  0  0  0  0  0  0  0
    4.7750   -5.3375    0.0000 C   0  0  0  0  0  0  0  0  0  0  0  0
   -1.6583   -3.2167    0.0000 C   0  0  0  0  0  0  0  0  0  0  0  0
   12.4125   -2.3750    0.0000 N   0  0  0  0  0  0  0  0  0  0  0  0
   13.2000   -2.1250    0.0000 C   0  0  0  0  0  0  0  0  0  0  0  0
   -2.3833   -4.4417    0.0000 N   0  0  0  0  0  0  0  0  0  0  0  0
    2.6292   -4.0792    0.0000 C   0  0  0  0  0  0  0  0  0  0  0  0
    5.4875   -5.7542    0.0000 C   0  0  0  0  0  0  0  0  0  0  0  0
   -0.9333   -2.8042    0.0000 C   0  0  0  0  0  0  0  0  0  0  0  0
   -2.3875   -5.2750    0.0000 C   0  0  0  0  0  0  0  0  0  0  0  0
    9.8042   -3.3167    0.0000 O   0  0  0  0  0  0  0  0  0  0  0  0
   10.8292   -2.8667    0.0000 O   0  0  0  0  0  0  0  0  0  0  0  0
    3.3667   -2.0167    0.0000 C   0  0  0  0  0  0  0  0  0  0  0  0
    1.2125   -3.2375    0.0000 O   0  0  0  0  0  0  0  0  0  0  0  0
    7.6375   -5.3625    0.0000 O   0  0  0  0  0  0  0  0  0  0  0  0
    5.5042   -3.2792    0.0000 O   0  0  0  0  0  0  0  0  0  0  0  0
   -0.9583   -5.2875    0.0000 O   0  0  0  0  0  0  0  0  0  0  0  0
    3.3417   -5.3250    0.0000 O   0  0  0  0  0  0  0  0  0  0  0  0
   13.4167   -2.9292    0.0000 O   0  0  0  0  0  0  0  0  0  0  0  0
    0.4750   -5.3000    0.0000 C   0  0  0  0  0  0  0  0  0  0  0  0
   -0.9333   -1.9792    0.0000 O   0  0  0  0  0  0  0  0  0  0  0  0
    5.4792   -6.5875    0.0000 O   0  0  0  0  0  0  0  0  0  0  0  0
   -3.1083   -5.6792    0.0000 O   0  0  0  0  0  0  0  0  0  0  0  0
    4.0917   -1.6125    0.0000 O   0  0  0  0  0  0  0  0  0  0  0  0
    2.6417   -3.2542    0.0000 C   0  0  0  0  0  0  0  0  0  0  0  0
    9.0667   -5.3792    0.0000 C   0  0  0  0  0  0  0  0  0  0  0  0
   10.5917   -5.3792    0.0000 C   0  0  0  0  0  0  0  0  0  0  0  0
    6.9417   -3.2917    0.0000 C   0  0  0  0  0  0  0  0  0  0  0  0
    3.3667   -2.8417    0.0000 C   0  0  0  0  0  0  0  0  0  0  0  0
    6.2042   -5.3542    0.0000 O   0  0  0  0  0  0  0  0  0  0  0  0
   -0.2208   -3.2250    0.0000 O   0  0  0  0  0  0  0  0  0  0  0  0
    2.6542   -1.6000    0.0000 O   0  0  0  0  0  0  0  0  0  0  0  0
   11.8167   -4.8542    0.0000 C   0  0  0  0  0  0  0  0  0  0  0  0
    1.1875   -5.7167    0.0000 O   0  0  0  0  0  0  0  0  0  0  0  0
   11.8042   -1.8167    0.0000 C   0  0  0  0  0  0  0  0  0  0  0  0
   13.7917   -1.5375    0.0000 C   0  0  0  0  0  0  0  0  0  0  0  0
   11.3917   -5.5667    0.0000 C   0  0  0  0  0  0  0  0  0  0  0  0
   -1.6750   -5.6917    0.0000 C   0  0  0  0  0  0  0  0  0  0  0  0
   -0.2458   -5.7042    0.0000 C   0  0  0  0  0  0  0  0  0  0  0  0
    9.7792   -5.7917    0.0000 C   0  0  0  0  0  0  0  0  0  0  0  0
    8.3500   -5.7792    0.0000 C   0  0  0  0  0  0  0  0  0  0  0  0
    6.2292   -2.8667    0.0000 C   0  0  0  0  0  0  0  0  0  0  0  0
    7.6625   -2.8792    0.0000 C   0  0  0  0  0  0  0  0  0  0  0  0
   11.9792   -1.0042    0.0000 C   0  0  0  0  0  0  0  0  0  0  0  0
   11.3750   -0.4542    0.0000 C   0  0  0  0  0  0  0  0  0  0  0  0
  2  1  1  0
 11  3  1  1
  4  5  1  0
  5 16  1  0
  6  8  1  0
  4  7  1  6
 10  8  1  6
 18  9  1  1
 10  2  1  0
 11  1  1  0
 12  7  1  0
 13  9  1  0
 14  3  1  0
 15 17  1  0
 26 16  1  1
 19 17  1  6
 18  6  1  0
 19 13  1  0
 20 12  1  0
 19 21  1  0
 20 22  1  1
 23 14  1  0
 24 23  1  0
 25 20  1  0
 26 15  1  0
 27 21  1  0
 28 22  1  0
 29 25  1  0
 30  2  2  0
 31  3  2  0
 32 48  1  0
 33  5  2  0
 34  6  2  0
 35 13  2  0
 36 12  2  0
 37 15  2  0
 38 24  2  0
  4 39  1  0
 40 28  2  0
 41 27  2  0
 42 29  2  0
 43 32  2  0
 26 44  1  0
 10 45  1  0
 46  1  1  0
 18 47  1  0
 48 44  1  0
 49 27  1  0
 50 28  1  0
 51 32  1  0
 11 52  1  0
 39 53  1  6
 54 23  1  0
 55 24  1  0
 56 46  1  0
 57 29  1  0
 58 39  1  0
 59 45  1  0
 60 45  1  0
 61 47  1  0
 62 47  1  0
 63 54  1  0
 64 63  1  0
 52 56  1  0
M  END

> <chembl_id>
CHEMBL414009

> <chembl_pref_name>
None

$$$$

     RDKit          2D

 30 32  0  0  0  0  0  0  0  0999 V2000
   -1.0333   -1.7500    0.0000 C   0  0  0  0  0  0  0  0  0  0  0  0
   -1.0333   -0.9250    0.0000 C   0  0  0  0  0  0  0  0  0  0  0  0
   -1.7458   -2.1667    0.0000 S   0  0  0  0  0  0  0  0  0  0  0  0
    1.8250   -0.9042    0.0000 C   0  0  0  0  0  0  0  0  0  0  0  0
   -1.7458   -0.5125    0.0000 C   0  0  0  0  0  0  0  0  0  0  0  0
    0.3917   -0.9167    0.0000 C   0  0  0  0  0  0  0  0  0  0  0  0
   -0.3208   -0.5042    0.0000 C   0  0  0  0  0  0  0  0  0  0  0  0
    1.1042   -0.5000    0.0000 N   0  0  0  0  0  0  0  0  0  0  0  0
   -2.4583   -1.7542    0.0000 C   0  0  0  0  0  0  0  0  0  0  0  0
   -0.3125   -2.1625    0.0000 C   0  0  0  0  0  0  0  0  0  0  0  0
    5.4042   -2.1250    0.0000 C   0  0  0  0  0  0  0  0  0  0  0  0
    0.4000   -1.7417    0.0000 C   0  0  0  0  0  0  0  0  0  0  0  0
   -2.4583   -0.9250    0.0000 C   0  0  0  0  0  0  0  0  0  0  0  0
    2.5375   -0.4917    0.0000 N   0  0  0  0  0  0  0  0  0  0  0  0
    4.6792   -1.7167    0.0000 C   0  0  0  0  0  0  0  0  0  0  0  0
    1.8292   -1.7292    0.0000 O   0  0  0  0  0  0  0  0  0  0  0  0
    6.1167   -1.7042    0.0000 O   0  0  0  0  0  0  0  0  0  0  0  0
    3.9667   -2.1292    0.0000 C   0  0  0  0  0  0  0  0  0  0  0  0
    4.6750   -0.8875    0.0000 C   0  0  0  0  0  0  0  0  0  0  0  0
    3.2542   -0.9000    0.0000 C   0  0  0  0  0  0  0  0  0  0  0  0
    5.4042   -2.9500    0.0000 O   0  0  0  0  0  0  0  0  0  0  0  0
    3.9542   -0.4792    0.0000 C   0  0  0  0  0  0  0  0  0  0  0  0
    3.2542   -1.7250    0.0000 C   0  0  0  0  0  0  0  0  0  0  0  0
   -1.1625    0.0750    0.0000 C   0  0  0  0  0  0  0  0  0  0  0  0
   -2.3333    0.0750    0.0000 C   0  0  0  0  0  0  0  0  0  0  0  0
   -3.1750   -1.3417    0.0000 C   0  0  0  0  0  0  0  0  0  0  0  0
   -3.1750   -2.1667    0.0000 C   0  0  0  0  0  0  0  0  0  0  0  0
    1.1167   -2.1542    0.0000 C   0  0  0  0  0  0  0  0  0  0  0  0
    4.7000   -3.3667    0.0000 C   0  0  0  0  0  0  0  0  0  0  0  0
    4.7042   -4.1917    0.0000 C   0  0  0  0  0  0  0  0  0  0  0  0
  2  1  2  0
  3  1  1  0
  4  8  1  0
  5  2  1  0
  6 12  1  0
  7  2  1  0
  8  6  1  0
  9  3  1  0
 10  1  1  0
 11 15  1  0
 12 10  2  0
 13  9  1  0
 14  4  1  0
 15 18  2  0
 16  4  2  0
 17 11  2  0
 18 23  1  0
 19 22  2  0
 20 14  1  0
 21 11  1  0
 22 20  1  0
 23 20  2  0
 24  5  1  0
 25  5  1  0
 26  9  1  0
 27  9  1  0
 28 12  1  0
 29 21  1  0
 30 29  1  0
  6  7  2  0
  5 13  1  0
 19 15  1  0
M  END

> <chembl_id>
CHEMBL6500

> <chembl_pref_name>
None

$$$$

     RDKit          2D

 29 31  0  0  0  0  0  0  0  0999 V2000
    5.4042   -2.1250    0.0000 S   0  0  0  0  0  0  0  0  0  0  0  0
   -1.0333   -1.7500    0.0000 C   0  0  0  0  0  0  0  0  0  0  0  0
   -1.0333   -0.9250    0.0000 C   0  0  0  0  0  0  0  0  0  0  0  0
   -1.7458   -2.1667    0.0000 S   0  0  0  0  0  0  0  0  0  0  0  0
    1.8250   -0.9042    0.0000 C   0  0  0  0  0  0  0  0  0  0  0  0
   -1.7458   -0.5125    0.0000 C   0  0  0  0  0  0  0  0  0  0  0  0
    0.3917   -0.9167    0.0000 C   0  0  0  0  0  0  0  0  0  0  0  0
   -0.3208   -0.5042    0.0000 C   0  0  0  0  0  0  0  0  0  0  0  0
    1.1042   -0.5000    0.0000 N   0  0  0  0  0  0  0  0  0  0  0  0
   -2.4583   -1.7542    0.0000 C   0  0  0  0  0  0  0  0  0  0  0  0
    4.6792   -1.7167    0.0000 C   0  0  0  0  0  0  0  0  0  0  0  0
   -0.3125   -2.1625    0.0000 C   0  0  0  0  0  0  0  0  0  0  0  0
    0.4000   -1.7417    0.0000 C   0  0  0  0  0  0  0  0  0  0  0  0
   -2.4583   -0.9250    0.0000 C   0  0  0  0  0  0  0  0  0  0  0  0
    6.1167   -1.7042    0.0000 O   0  0  0  0  0  0  0  0  0  0  0  0
    5.1875   -1.3250    0.0000 O   0  0  0  0  0  0  0  0  0  0  0  0
    2.5375   -0.4917    0.0000 N   0  0  0  0  0  0  0  0  0  0  0  0
    1.8292   -1.7292    0.0000 S   0  0  0  0  0  0  0  0  0  0  0  0
    5.6167   -2.9167    0.0000 N   0  0  0  0  0  0  0  0  0  0  0  0
    3.9667   -2.1292    0.0000 C   0  0  0  0  0  0  0  0  0  0  0  0
    4.6750   -0.8875    0.0000 C   0  0  0  0  0  0  0  0  0  0  0  0
    3.2542   -0.9000    0.0000 C   0  0  0  0  0  0  0  0  0  0  0  0
    3.2542   -1.7250    0.0000 C   0  0  0  0  0  0  0  0  0  0  0  0
    3.9542   -0.4792    0.0000 C   0  0  0  0  0  0  0  0  0  0  0  0
   -2.3333    0.0750    0.0000 C   0  0  0  0  0  0  0  0  0  0  0  0
   -1.1625    0.0750    0.0000 C   0  0  0  0  0  0  0  0  0  0  0  0
   -3.1750   -2.1667    0.0000 C   0  0  0  0  0  0  0  0  0  0  0  0
   -3.1750   -1.3417    0.0000 C   0  0  0  0  0  0  0  0  0  0  0  0
    1.1167   -2.1542    0.0000 C   0  0  0  0  0  0  0  0  0  0  0  0
  2 12  2  0
  3  8  2  0
  4  2  1  0
  5 17  1  0
  6  3  1  0
  7  9  1  0
  8  7  1  0
  9  5  2  0
 10  4  1  0
 11  1  1  0
 12 13  1  0
 13  7  2  0
 14  6  1  0
 15  1  2  0
 16  1  2  0
 17 22  1  0
 18  5  1  0
 19  1  1  0
 20 11  2  0
 21 11  1  0
 22 24  1  0
 23 20  1  0
 24 21  2  0
 25  6  1  0
 26  6  1  0
 27 10  1  0
 28 10  1  0
 29 13  1  0
 22 23  2  0
  3  2  1  0
 14 10  1  0
M  END

> <chembl_id>
CHEMBL6499

> <chembl_pref_name>
None

$$$$

     RDKit          2D

 32 35  0  0  0  0  0  0  0  0999 V2000
    3.8125   -6.6042    0.0000 C   0  0  0  0  0  0  0  0  0  0  0  0
    3.8167   -7.4375    0.0000 N   0  0  0  0  0  0  0  0  0  0  0  0
    2.3792   -7.4417    0.0000 C   0  0  0  0  0  0  0  0  0  0  0  0
    3.1042   -7.8542    0.0000 C   0  0  0  0  0  0  0  0  0  0  0  0
    3.0917   -6.2000    0.0000 N   0  0  0  0  0  0  0  0  0  0  0  0
    2.3792   -6.6167    0.0000 C   0  0  0  0  0  0  0  0  0  0  0  0
    4.5250   -6.1917    0.0000 N   0  0  0  0  0  0  0  0  0  0  0  0
    1.6667   -7.8542    0.0000 C   0  0  0  0  0  0  0  0  0  0  0  0
    1.6667   -6.2042    0.0000 C   0  0  0  0  0  0  0  0  0  0  0  0
    6.6625   -4.9500    0.0000 C   0  0  0  0  0  0  0  0  0  0  0  0
    0.9542   -7.4417    0.0000 C   0  0  0  0  0  0  0  0  0  0  0  0
    0.9542   -6.6167    0.0000 C   0  0  0  0  0  0  0  0  0  0  0  0
    4.5167   -5.3667    0.0000 C   0  0  0  0  0  0  0  0  0  0  0  0
    5.2375   -6.6042    0.0000 C   0  0  0  0  0  0  0  0  0  0  0  0
    5.9500   -5.3625    0.0000 C   0  0  0  0  0  0  0  0  0  0  0  0
    7.3750   -5.3542    0.0000 O   0  0  0  0  0  0  0  0  0  0  0  0
    3.1042   -8.6792    0.0000 N   0  0  0  0  0  0  0  0  0  0  0  0
    6.6542   -4.1250    0.0000 N   0  0  0  0  0  0  0  0  0  0  0  0
    5.2292   -4.9542    0.0000 C   0  0  0  0  0  0  0  0  0  0  0  0
    5.9500   -6.1875    0.0000 C   0  0  0  0  0  0  0  0  0  0  0  0
    0.2417   -7.8542    0.0000 O   0  0  0  0  0  0  0  0  0  0  0  0
    0.2417   -6.2042    0.0000 O   0  0  0  0  0  0  0  0  0  0  0  0
    5.9417   -3.7125    0.0000 C   0  0  0  0  0  0  0  0  0  0  0  0
    5.2292   -2.4875    0.0000 C   0  0  0  0  0  0  0  0  0  0  0  0
    5.9417   -2.8875    0.0000 C   0  0  0  0  0  0  0  0  0  0  0  0
    0.2417   -8.6792    0.0000 C   0  0  0  0  0  0  0  0  0  0  0  0
    0.2417   -5.3792    0.0000 C   0  0  0  0  0  0  0  0  0  0  0  0
    5.2250   -1.6667    0.0000 C   0  0  0  0  0  0  0  0  0  0  0  0
    4.5292   -2.9042    0.0000 C   0  0  0  0  0  0  0  0  0  0  0  0
    3.8167   -2.5042    0.0000 C   0  0  0  0  0  0  0  0  0  0  0  0
    4.5125   -1.2625    0.0000 C   0  0  0  0  0  0  0  0  0  0  0  0
    3.8042   -1.6792    0.0000 C   0  0  0  0  0  0  0  0  0  0  0  0
  2  1  1  0
  3  6  1  0
  4  2  2  0
  5  1  2  0
  6  5  1  0
  7  1  1  0
  8  3  2  0
  9  6  2  0
 10 15  1  0
 11 12  2  0
 12  9  1  0
 13  7  1  0
 14  7  1  0
 15 20  1  0
 16 10  2  0
 17  4  1  0
 18 10  1  0
 19 13  1  0
 20 14  1  0
 21 11  1  0
 22 12  1  0
 23 18  1  0
 24 25  1  0
 25 23  1  0
 26 21  1  0
 27 22  1  0
 28 24  2  0
 29 24  1  0
 30 29  2  0
 31 28  1  0
 32 30  1  0
  4  3  1  0
 15 19  1  0
 11  8  1  0
 32 31  2  0
M  END

> <chembl_id>
CHEMBL6424

> <chembl_pref_name>
None

$$$$

     RDKit          2D

 31 34  0  0  0  0  0  0  0  0999 V2000
    3.8125   -6.6042    0.0000 C   0  0  0  0  0  0  0  0  0  0  0  0
    3.8167   -7.4375    0.0000 N   0  0  0  0  0  0  0  0  0  0  0  0
    2.3792   -7.4417    0.0000 C   0  0  0  0  0  0  0  0  0  0  0  0
    3.1042   -7.8542    0.0000 C   0  0  0  0  0  0  0  0  0  0  0  0
    3.0917   -6.2000    0.0000 N   0  0  0  0  0  0  0  0  0  0  0  0
    2.3792   -6.6167    0.0000 C   0  0  0  0  0  0  0  0  0  0  0  0
    4.5250   -6.1917    0.0000 N   0  0  0  0  0  0  0  0  0  0  0  0
    1.6667   -7.8542    0.0000 C   0  0  0  0  0  0  0  0  0  0  0  0
    1.6667   -6.2042    0.0000 C   0  0  0  0  0  0  0  0  0  0  0  0
    6.6625   -4.9500    0.0000 C   0  0  0  0  0  0  0  0  0  0  0  0
    0.9542   -7.4417    0.0000 C   0  0  0  0  0  0  0  0  0  0  0  0
    0.9542   -6.6167    0.0000 C   0  0  0  0  0  0  0  0  0  0  0  0
    6.6542   -4.1250    0.0000 N   0  0  0  0  0  0  0  0  0  0  0  0
    5.9500   -5.3625    0.0000 C   0  0  0  0  0  0  0  0  0  0  0  0
    5.2375   -6.6042    0.0000 C   0  0  0  0  0  0  0  0  0  0  0  0
    4.5167   -5.3667    0.0000 C   0  0  0  0  0  0  0  0  0  0  0  0
    7.3750   -5.3542    0.0000 O   0  0  0  0  0  0  0  0  0  0  0  0
    3.1042   -8.6792    0.0000 N   0  0  0  0  0  0  0  0  0  0  0  0
    5.2292   -4.9542    0.0000 C   0  0  0  0  0  0  0  0  0  0  0  0
    5.9500   -6.1875    0.0000 C   0  0  0  0  0  0  0  0  0  0  0  0
    5.9417   -3.7125    0.0000 C   0  0  0  0  0  0  0  0  0  0  0  0
    0.2417   -7.8542    0.0000 O   0  0  0  0  0  0  0  0  0  0  0  0
    0.2417   -6.2042    0.0000 O   0  0  0  0  0  0  0  0  0  0  0  0
    5.9417   -2.8875    0.0000 C   0  0  0  0  0  0  0  0  0  0  0  0
    0.2417   -5.3792    0.0000 C   0  0  0  0  0  0  0  0  0  0  0  0
    0.2417   -8.6792    0.0000 C   0  0  0  0  0  0  0  0  0  0  0  0
    6.6542   -2.4792    0.0000 C   0  0  0  0  0  0  0  0  0  0  0  0
    5.2292   -2.4875    0.0000 C   0  0  0  0  0  0  0  0  0  0  0  0
    5.2250   -1.6625    0.0000 C   0  0  0  0  0  0  0  0  0  0  0  0
    6.6542   -1.6542    0.0000 C   0  0  0  0  0  0  0  0  0  0  0  0
    5.9375   -1.2417    0.0000 C   0  0  0  0  0  0  0  0  0  0  0  0
  2  1  1  0
  3  6  1  0
  4  2  2  0
  5  1  2  0
  6  5  1  0
  7  1  1  0
  8  3  2  0
  9  6  2  0
 10 14  1  0
 11 12  2  0
 12  9  1  0
 13 10  1  0
 14 19  1  0
 15  7  1  0
 16  7  1  0
 17 10  2  0
 18  4  1  0
 19 16  1  0
 20 15  1  0
 21 13  1  0
 22 11  1  0
 23 12  1  0
 24 21  1  0
 25 23  1  0
 26 22  1  0
 27 24  2  0
 28 24  1  0
 29 28  2  0
 30 27  1  0
 31 29  1  0
  4  3  1  0
 14 20  1  0
 11  8  1  0
 31 30  2  0
M  END

> <chembl_id>
CHEMBL6474

> <chembl_pref_name>
None

$$$$

     RDKit          2D

 22 24  0  0  0  0  0  0  0  0999 V2000
    4.3875   -1.3542    0.0000 C   0  0  0  0  0  0  0  0  0  0  0  0
    3.6167   -1.0375    0.0000 N   0  0  0  0  0  0  0  0  0  0  0  0
    4.9167   -0.7292    0.0000 C   0  0  0  0  0  0  0  0  0  0  0  0
    2.7542   -2.2500    0.0000 C   0  0  0  0  0  0  0  0  0  0  0  0
    4.4917   -0.0292    0.0000 N   0  0  0  0  0  0  0  0  0  0  0  0
    3.3000   -2.8625    0.0000 C   0  0  0  0  0  0  0  0  0  0  0  0
    2.9000   -1.4292    0.0000 C   0  0  0  0  0  0  0  0  0  0  0  0
    4.1125   -2.8125    0.0000 N   0  0  0  0  0  0  0  0  0  0  0  0
    3.6875   -0.2167    0.0000 C   0  0  0  0  0  0  0  0  0  0  0  0
    4.5917   -2.1417    0.0000 C   0  0  0  0  0  0  0  0  0  0  0  0
    5.7417   -0.7792    0.0000 C   0  0  0  0  0  0  0  0  0  0  0  0
    1.9792   -2.5375    0.0000 C   0  0  0  0  0  0  0  0  0  0  0  0
    2.2542   -0.9042    0.0000 C   0  0  0  0  0  0  0  0  0  0  0  0
    2.9875   -3.6292    0.0000 O   0  0  0  0  0  0  0  0  0  0  0  0
    6.2042   -0.0917    0.0000 O   0  0  0  0  0  0  0  0  0  0  0  0
    1.3417   -2.0125    0.0000 C   0  0  0  0  0  0  0  0  0  0  0  0
    1.4792   -1.1917    0.0000 C   0  0  0  0  0  0  0  0  0  0  0  0
    6.1125   -1.5250    0.0000 O   0  0  0  0  0  0  0  0  0  0  0  0
    4.5042   -3.5417    0.0000 C   0  0  0  0  0  0  0  0  0  0  0  0
    0.5750   -2.2917    0.0000 Cl  0  0  0  0  0  0  0  0  0  0  0  0
    6.9292   -1.5750    0.0000 C   0  0  0  0  0  0  0  0  0  0  0  0
    7.3000   -2.3167    0.0000 C   0  0  0  0  0  0  0  0  0  0  0  0
  2  1  1  0
  3  1  2  0
  4  7  2  0
  5  3  1  0
  6  8  1  0
  7  2  1  0
  8 10  1  0
  9  2  1  0
 10  1  1  0
 11  3  1  0
 12  4  1  0
 13  7  1  0
 14  6  2  0
 15 11  2  0
 16 17  1  0
 17 13  2  0
 18 11  1  0
 19  8  1  0
 20 16  1  0
 21 18  1  0
 22 21  1  0
  5  9  2  0
  4  6  1  0
 16 12  2  0
M  END

> <chembl_id>
CHEMBL415290

> <chembl_pref_name>
Ro-151310

$$$$

     RDKit          2D

 22 24  0  0  0  0  0  0  0  0999 V2000
   11.5447  -16.0718    0.0000 C   0  0  0  0  0  0  0  0  0  0  0  0
   10.7326  -15.8927    0.0000 N   0  0  0  0  0  0  0  0  0  0  0  0
   11.9612  -15.3596    0.0000 C   0  0  0  0  0  0  0  0  0  0  0  0
   10.0871  -17.2421    0.0000 C   0  0  0  0  0  0  0  0  0  0  0  0
   11.4115  -14.7349    0.0000 N   0  0  0  0  0  0  0  0  0  0  0  0
   10.7368  -17.7544    0.0000 C   0  0  0  0  0  0  0  0  0  0  0  0
   10.0871  -16.4175    0.0000 C   0  0  0  0  0  0  0  0  0  0  0  0
   11.5489  -17.5669    0.0000 N   0  0  0  0  0  0  0  0  0  0  0  0
   10.6493  -15.0598    0.0000 C   0  0  0  0  0  0  0  0  0  0  0  0
   11.8987  -16.8173    0.0000 C   0  0  0  0  0  0  0  0  0  0  0  0
   12.7858  -15.3347    0.0000 C   0  0  0  0  0  0  0  0  0  0  0  0
    9.3749  -17.6586    0.0000 C   0  0  0  0  0  0  0  0  0  0  0  0
    9.3749  -16.0094    0.0000 C   0  0  0  0  0  0  0  0  0  0  0  0
   10.5619  -18.5540    0.0000 O   0  0  0  0  0  0  0  0  0  0  0  0
   13.1814  -14.6100    0.0000 O   0  0  0  0  0  0  0  0  0  0  0  0
    8.6627  -17.2463    0.0000 C   0  0  0  0  0  0  0  0  0  0  0  0
    8.6627  -16.4217    0.0000 C   0  0  0  0  0  0  0  0  0  0  0  0
   13.2231  -16.0343    0.0000 O   0  0  0  0  0  0  0  0  0  0  0  0
   12.0612  -18.2041    0.0000 C   0  0  0  0  0  0  0  0  0  0  0  0
    7.9506  -17.6586    0.0000 F   0  0  0  0  0  0  0  0  0  0  0  0
   14.0436  -16.0094    0.0000 C   0  0  0  0  0  0  0  0  0  0  0  0
   14.4726  -16.7090    0.0000 C   0  0  0  0  0  0  0  0  0  0  0  0
  2  1  1  0
  3  1  2  0
  4  7  1  0
  5  3  1  0
  6  8  1  0
  7  2  1  0
  8 10  1  0
  9  2  1  0
 10  1  1  0
 11  3  1  0
 12  4  2  0
 13  7  2  0
 14  6  2  0
 15 11  2  0
 16 17  2  0
 17 13  1  0
 18 11  1  0
 19  8  1  0
 20 16  1  0
 21 18  1  0
 22 21  1  0
  5  9  2  0
  4  6  1  0
 16 12  1  0
M  END

> <chembl_id>
CHEMBL407

> <chembl_pref_name>
FLUMAZENIL

$$$$

     RDKit          2D

 16 17  0  0  0  0  0  0  0  0999 V2000
    5.4500   -3.5917    0.0000 C   0  0  0  0  0  0  0  0  0  0  0  0
    4.0292   -3.5917    0.0000 N   0  0  0  0  0  0  0  0  0  0  0  0
    4.0292   -4.4167    0.0000 N   0  0  0  0  0  0  0  0  0  0  0  0
    5.4500   -4.4167    0.0000 C   0  0  0  0  0  0  0  0  0  0  0  0
    4.7375   -3.1750    0.0000 C   0  0  0  0  0  0  0  0  0  0  0  0
    6.1667   -3.1792    0.0000 C   0  0  0  0  0  0  0  0  0  0  0  0
    4.7375   -4.8250    0.0000 C   0  0  0  0  0  0  0  0  0  0  0  0
    6.1667   -2.3542    0.0000 O   0  0  0  0  0  0  0  0  0  0  0  0
    4.7375   -5.6500    0.0000 C   0  0  0  0  0  0  0  0  0  0  0  0
    6.8792   -3.5917    0.0000 N   0  0  0  0  0  0  0  0  0  0  0  0
    4.7375   -2.3500    0.0000 Cl  0  0  0  0  0  0  0  0  0  0  0  0
    4.0167   -6.0542    0.0000 C   0  0  0  0  0  0  0  0  0  0  0  0
    5.4500   -6.0542    0.0000 C   0  0  0  0  0  0  0  0  0  0  0  0
    5.4542   -6.8792    0.0000 C   0  0  0  0  0  0  0  0  0  0  0  0
    4.0167   -6.8792    0.0000 C   0  0  0  0  0  0  0  0  0  0  0  0
    4.7375   -7.2917    0.0000 C   0  0  0  0  0  0  0  0  0  0  0  0
  2  5  2  0
  3  2  1  0
  4  1  2  0
  5  1  1  0
  6  1  1  0
  7  4  1  0
  8  6  2  0
  9  7  1  0
 10  6  1  0
 11  5  1  0
 12  9  2  0
 13  9  1  0
 14 13  2  0
 15 12  1  0
 16 14  1  0
  3  7  2  0
 15 16  2  0
M  END

> <chembl_id>
CHEMBL6484

> <chembl_pref_name>
None

$$$$

     RDKit          2D

 67 67  0  0  1  0  0  0  0  0999 V2000
   10.2042   -4.5625    0.0000 N   0  0  0  0  0  0  0  0  0  0  0  0
    9.4917   -4.1417    0.0000 C   0  0  0  0  0  0  0  0  0  0  0  0
   12.8917   -2.1250    0.0000 C   0  0  0  0  0  0  0  0  0  0  0  0
   11.1417   -3.4250    0.0000 C   0  0  0  0  0  0  0  0  0  0  0  0
    0.1792   -4.4750    0.0000 C   0  0  0  0  0  0  0  0  0  0  0  0
    0.9042   -4.0667    0.0000 C   0  0  0  0  0  0  0  0  0  0  0  0
   13.4292   -1.4917    0.0000 C   0  0  0  0  0  0  0  0  0  0  0  0
    7.3417   -4.5375    0.0000 C   0  0  0  0  0  0  0  0  0  0  0  0
   -0.5333   -4.0542    0.0000 N   0  0  0  0  0  0  0  0  0  0  0  0
    8.0542   -4.1292    0.0000 N   0  0  0  0  0  0  0  0  0  0  0  0
    5.9042   -4.5250    0.0000 N   0  0  0  0  0  0  0  0  0  0  0  0
    8.7750   -4.5542    0.0000 C   0  0  0  0  0  0  0  0  0  0  0  0
   10.9542   -4.2292    0.0000 C   0  0  0  0  0  0  0  0  0  0  0  0
   12.1042   -2.3750    0.0000 N   0  0  0  0  0  0  0  0  0  0  0  0
   -1.2500   -4.4542    0.0000 C   0  0  0  0  0  0  0  0  0  0  0  0
    5.1917   -4.1042    0.0000 C   0  0  0  0  0  0  0  0  0  0  0  0
   11.9292   -3.1792    0.0000 N   0  0  0  0  0  0  0  0  0  0  0  0
    3.0417   -4.5000    0.0000 C   0  0  0  0  0  0  0  0  0  0  0  0
    1.6125   -4.4792    0.0000 N   0  0  0  0  0  0  0  0  0  0  0  0
    3.7625   -4.0917    0.0000 N   0  0  0  0  0  0  0  0  0  0  0  0
    6.6292   -4.1167    0.0000 C   0  0  0  0  0  0  0  0  0  0  0  0
    4.4792   -4.5042    0.0000 C   0  0  0  0  0  0  0  0  0  0  0  0
   -1.9708   -4.0417    0.0000 C   0  0  0  0  0  0  0  0  0  0  0  0
    4.4667   -5.3375    0.0000 C   0  0  0  0  0  0  0  0  0  0  0  0
   -1.9583   -3.2167    0.0000 C   0  0  0  0  0  0  0  0  0  0  0  0
   -2.6833   -4.4417    0.0000 N   0  0  0  0  0  0  0  0  0  0  0  0
    2.3292   -4.0792    0.0000 C   0  0  0  0  0  0  0  0  0  0  0  0
    5.1792   -5.7542    0.0000 C   0  0  0  0  0  0  0  0  0  0  0  0
   -1.2375   -2.8042    0.0000 C   0  0  0  0  0  0  0  0  0  0  0  0
   -2.6958   -5.2750    0.0000 C   0  0  0  0  0  0  0  0  0  0  0  0
   13.1667   -2.9000    0.0000 O   0  0  0  0  0  0  0  0  0  0  0  0
    9.5000   -3.3167    0.0000 O   0  0  0  0  0  0  0  0  0  0  0  0
   10.5292   -2.8667    0.0000 O   0  0  0  0  0  0  0  0  0  0  0  0
    3.0667   -2.0167    0.0000 C   0  0  0  0  0  0  0  0  0  0  0  0
    0.9042   -3.2375    0.0000 O   0  0  0  0  0  0  0  0  0  0  0  0
    7.3292   -5.3625    0.0000 O   0  0  0  0  0  0  0  0  0  0  0  0
    5.2042   -3.2792    0.0000 O   0  0  0  0  0  0  0  0  0  0  0  0
   -1.2583   -5.2875    0.0000 O   0  0  0  0  0  0  0  0  0  0  0  0
    3.0375   -5.3250    0.0000 O   0  0  0  0  0  0  0  0  0  0  0  0
    0.1667   -5.3000    0.0000 C   0  0  0  0  0  0  0  0  0  0  0  0
   -1.2333   -1.9792    0.0000 O   0  0  0  0  0  0  0  0  0  0  0  0
    5.1750   -6.5875    0.0000 O   0  0  0  0  0  0  0  0  0  0  0  0
   -3.4083   -5.6792    0.0000 O   0  0  0  0  0  0  0  0  0  0  0  0
    3.7875   -1.6125    0.0000 O   0  0  0  0  0  0  0  0  0  0  0  0
   13.9000   -2.1667    0.0000 F   0  0  0  0  0  0  0  0  0  0  0  0
   14.2417   -1.6417    0.0000 F   0  0  0  0  0  0  0  0  0  0  0  0
   13.1500   -0.7167    0.0000 F   0  0  0  0  0  0  0  0  0  0  0  0
    2.3417   -3.2542    0.0000 C   0  0  0  0  0  0  0  0  0  0  0  0
    8.7667   -5.3792    0.0000 C   0  0  0  0  0  0  0  0  0  0  0  0
   10.2875   -5.3792    0.0000 C   0  0  0  0  0  0  0  0  0  0  0  0
    6.6375   -3.2917    0.0000 C   0  0  0  0  0  0  0  0  0  0  0  0
    3.0625   -2.8417    0.0000 C   0  0  0  0  0  0  0  0  0  0  0  0
    5.9042   -5.3542    0.0000 O   0  0  0  0  0  0  0  0  0  0  0  0
   -0.5250   -3.2250    0.0000 O   0  0  0  0  0  0  0  0  0  0  0  0
    2.3542   -1.6000    0.0000 O   0  0  0  0  0  0  0  0  0  0  0  0
   11.5125   -4.8542    0.0000 C   0  0  0  0  0  0  0  0  0  0  0  0
   11.5000   -1.8167    0.0000 C   0  0  0  0  0  0  0  0  0  0  0  0
    0.8792   -5.7167    0.0000 O   0  0  0  0  0  0  0  0  0  0  0  0
   11.0917   -5.5667    0.0000 C   0  0  0  0  0  0  0  0  0  0  0  0
   -1.9833   -5.6917    0.0000 C   0  0  0  0  0  0  0  0  0  0  0  0
   -0.5500   -5.7042    0.0000 C   0  0  0  0  0  0  0  0  0  0  0  0
    8.0417   -5.7792    0.0000 C   0  0  0  0  0  0  0  0  0  0  0  0
    9.4792   -5.7917    0.0000 C   0  0  0  0  0  0  0  0  0  0  0  0
    7.3542   -2.8792    0.0000 C   0  0  0  0  0  0  0  0  0  0  0  0
    5.9250   -2.8667    0.0000 C   0  0  0  0  0  0  0  0  0  0  0  0
   11.6792   -1.0042    0.0000 C   0  0  0  0  0  0  0  0  0  0  0  0
   11.0667   -0.4542    0.0000 C   0  0  0  0  0  0  0  0  0  0  0  0
  2  1  1  0
  3 14  1  0
 13  4  1  1
  5  6  1  0
  6 19  1  0
  7  3  1  0
  8 10  1  0
  5  9  1  6
 12 10  1  6
 21 11  1  1
 12  2  1  0
 13  1  1  0
 14 17  1  0
 15  9  1  0
 16 11  1  0
 17  4  1  0
 18 20  1  0
 27 19  1  1
 22 20  1  6
 21  8  1  0
 22 16  1  0
 23 15  1  0
 22 24  1  0
 23 25  1  1
 26 23  1  0
 27 18  1  0
 28 24  1  0
 29 25  1  0
 30 26  1  0
 31  3  2  0
 32  2  2  0
 33  4  2  0
 34 52  1  0
 35  6  2  0
 36  8  2  0
 37 16  2  0
 38 15  2  0
 39 18  2  0
  5 40  1  0
 41 29  2  0
 42 28  2  0
 43 30  2  0
 44 34  2  0
 45  7  1  0
 46  7  1  0
 47  7  1  0
 27 48  1  0
 12 49  1  0
 50  1  1  0
 21 51  1  0
 52 48  1  0
 53 28  1  0
 54 29  1  0
 55 34  1  0
 13 56  1  0
 57 14  1  0
 40 58  1  6
 59 50  1  0
 60 30  1  0
 61 40  1  0
 62 49  1  0
 63 49  1  0
 64 51  1  0
 65 51  1  0
 66 57  1  0
 67 66  1  0
 56 59  1  0
M  END

> <chembl_id>
CHEMBL6507

> <chembl_pref_name>
None

$$$$

     RDKit          2D

 66 66  0  0  1  0  0  0  0  0999 V2000
   12.9250   -1.5417    0.0000 S   0  0  0  0  0  0  0  0  0  0  0  0
   10.1917   -3.9292    0.0000 N   0  0  0  0  0  0  0  0  0  0  0  0
    9.4875   -3.5000    0.0000 C   0  0  0  0  0  0  0  0  0  0  0  0
   11.1500   -2.8125    0.0000 C   0  0  0  0  0  0  0  0  0  0  0  0
   12.1292   -1.7792    0.0000 N   0  0  0  0  0  0  0  0  0  0  0  0
    0.1667   -3.6542    0.0000 C   0  0  0  0  0  0  0  0  0  0  0  0
   11.9417   -2.5792    0.0000 N   0  0  0  0  0  0  0  0  0  0  0  0
    0.9000   -3.2667    0.0000 C   0  0  0  0  0  0  0  0  0  0  0  0
    7.3250   -3.8542    0.0000 C   0  0  0  0  0  0  0  0  0  0  0  0
   -0.5375   -3.2167    0.0000 N   0  0  0  0  0  0  0  0  0  0  0  0
    8.0542   -3.4625    0.0000 N   0  0  0  0  0  0  0  0  0  0  0  0
    5.8917   -3.8125    0.0000 N   0  0  0  0  0  0  0  0  0  0  0  0
    8.7542   -3.8917    0.0000 C   0  0  0  0  0  0  0  0  0  0  0  0
   10.9542   -3.6167    0.0000 C   0  0  0  0  0  0  0  0  0  0  0  0
   -1.2625   -3.6167    0.0000 C   0  0  0  0  0  0  0  0  0  0  0  0
    5.1917   -3.3792    0.0000 C   0  0  0  0  0  0  0  0  0  0  0  0
    3.0292   -3.7375    0.0000 C   0  0  0  0  0  0  0  0  0  0  0  0
    1.6000   -3.6917    0.0000 N   0  0  0  0  0  0  0  0  0  0  0  0
    3.7542   -3.3417    0.0000 N   0  0  0  0  0  0  0  0  0  0  0  0
    6.6250   -3.4167    0.0000 C   0  0  0  0  0  0  0  0  0  0  0  0
    4.4667   -3.7750    0.0000 C   0  0  0  0  0  0  0  0  0  0  0  0
   -1.9708   -3.1792    0.0000 C   0  0  0  0  0  0  0  0  0  0  0  0
    4.4417   -4.6000    0.0000 C   0  0  0  0  0  0  0  0  0  0  0  0
   -1.9458   -2.3542    0.0000 C   0  0  0  0  0  0  0  0  0  0  0  0
   -2.6958   -3.5792    0.0000 N   0  0  0  0  0  0  0  0  0  0  0  0
    2.3167   -3.3042    0.0000 C   0  0  0  0  0  0  0  0  0  0  0  0
    5.1500   -5.0292    0.0000 C   0  0  0  0  0  0  0  0  0  0  0  0
   -1.2208   -1.9625    0.0000 C   0  0  0  0  0  0  0  0  0  0  0  0
   12.9917   -2.2417    0.0000 O   0  0  0  0  0  0  0  0  0  0  0  0
   12.8667   -0.7792    0.0000 O   0  0  0  0  0  0  0  0  0  0  0  0
   -2.7208   -4.4042    0.0000 C   0  0  0  0  0  0  0  0  0  0  0  0
   13.8042   -1.5292    0.0000 C   0  0  0  0  0  0  0  0  0  0  0  0
    9.5042   -2.6750    0.0000 O   0  0  0  0  0  0  0  0  0  0  0  0
   10.5500   -2.2417    0.0000 O   0  0  0  0  0  0  0  0  0  0  0  0
    3.1000   -1.2542    0.0000 C   0  0  0  0  0  0  0  0  0  0  0  0
    0.9167   -2.4375    0.0000 O   0  0  0  0  0  0  0  0  0  0  0  0
    7.3042   -4.6792    0.0000 O   0  0  0  0  0  0  0  0  0  0  0  0
    5.2125   -2.5542    0.0000 O   0  0  0  0  0  0  0  0  0  0  0  0
   -1.2833   -4.4417    0.0000 O   0  0  0  0  0  0  0  0  0  0  0  0
    3.0042   -4.5625    0.0000 O   0  0  0  0  0  0  0  0  0  0  0  0
    0.1417   -4.4792    0.0000 C   0  0  0  0  0  0  0  0  0  0  0  0
   -1.1958   -1.1375    0.0000 O   0  0  0  0  0  0  0  0  0  0  0  0
    5.1250   -5.8625    0.0000 O   0  0  0  0  0  0  0  0  0  0  0  0
   -3.4458   -4.8000    0.0000 O   0  0  0  0  0  0  0  0  0  0  0  0
    3.8292   -0.8625    0.0000 O   0  0  0  0  0  0  0  0  0  0  0  0
    2.3542   -2.4750    0.0000 C   0  0  0  0  0  0  0  0  0  0  0  0
    8.7375   -4.7167    0.0000 C   0  0  0  0  0  0  0  0  0  0  0  0
   10.2542   -4.7542    0.0000 C   0  0  0  0  0  0  0  0  0  0  0  0
    6.6417   -2.5917    0.0000 C   0  0  0  0  0  0  0  0  0  0  0  0
    3.0792   -2.0792    0.0000 C   0  0  0  0  0  0  0  0  0  0  0  0
   14.2417   -2.0917    0.0000 Cl  0  0  0  0  0  0  0  0  0  0  0  0
   -0.5125   -2.3917    0.0000 O   0  0  0  0  0  0  0  0  0  0  0  0
    5.8750   -4.6417    0.0000 O   0  0  0  0  0  0  0  0  0  0  0  0
    2.3917   -0.8250    0.0000 O   0  0  0  0  0  0  0  0  0  0  0  0
   11.5375   -1.2042    0.0000 C   0  0  0  0  0  0  0  0  0  0  0  0
   11.4917   -4.2417    0.0000 C   0  0  0  0  0  0  0  0  0  0  0  0
    0.8500   -4.9167    0.0000 O   0  0  0  0  0  0  0  0  0  0  0  0
   11.0542   -4.9500    0.0000 C   0  0  0  0  0  0  0  0  0  0  0  0
   -2.0125   -4.8375    0.0000 C   0  0  0  0  0  0  0  0  0  0  0  0
   -0.5833   -4.8792    0.0000 C   0  0  0  0  0  0  0  0  0  0  0  0
    8.0042   -5.1125    0.0000 C   0  0  0  0  0  0  0  0  0  0  0  0
    9.4417   -5.1500    0.0000 C   0  0  0  0  0  0  0  0  0  0  0  0
    7.3750   -2.2000    0.0000 C   0  0  0  0  0  0  0  0  0  0  0  0
    5.9417   -2.1625    0.0000 C   0  0  0  0  0  0  0  0  0  0  0  0
   11.7292   -0.4042    0.0000 C   0  0  0  0  0  0  0  0  0  0  0  0
   11.1292    0.1625    0.0000 C   0  0  0  0  0  0  0  0  0  0  0  0
  2 14  1  0
  3  2  1  0
  4  7  1  0
  5  1  1  0
  6  8  1  0
  7  5  1  0
  8 18  1  0
  9 11  1  0
  6 10  1  6
 13 11  1  6
 20 12  1  1
 13  3  1  0
 14  4  1  1
 15 10  1  0
 16 12  1  0
 17 19  1  0
 26 18  1  1
 21 19  1  6
 20  9  1  0
 21 16  1  0
 22 15  1  0
 21 23  1  0
 22 24  1  1
 25 22  1  0
 26 17  1  0
 27 23  1  0
 28 24  1  0
 29  1  2  0
 30  1  2  0
 31 25  1  0
 32  1  1  0
 33  3  2  0
 34  4  2  0
 35 50  1  0
 36  8  2  0
 37  9  2  0
 38 16  2  0
 39 15  2  0
 40 17  2  0
  6 41  1  0
 42 28  2  0
 43 27  2  0
 44 31  2  0
 45 35  2  0
 26 46  1  0
 13 47  1  0
 48  2  1  0
 20 49  1  0
 50 46  1  0
 51 32  1  0
 52 28  1  0
 53 27  1  0
 54 35  1  0
 55  5  1  0
 14 56  1  0
 41 57  1  6
 58 56  1  0
 59 31  1  0
 60 41  1  0
 61 47  1  0
 62 47  1  0
 63 49  1  0
 64 49  1  0
 65 55  1  0
 66 65  1  0
 58 48  1  0
M  END

> <chembl_id>
CHEMBL428313

> <chembl_pref_name>
None

$$$$

     RDKit          2D

137140  0  0  1  0  0  0  0  0999 V2000
    7.3292   -1.7417    0.0000 N   0  0  0  0  0  0  0  0  0  0  0  0
    6.7417   -1.1542    0.0000 C   0  0  0  0  0  0  0  0  0  0  0  0
    8.5375   -0.8625    0.0000 C   0  0  0  0  0  0  0  0  0  0  0  0
   -2.4000    0.8750    0.0000 C   0  0  0  0  0  0  0  0  0  0  0  0
   10.8542  -10.1292    0.0000 C   0  0  0  0  0  0  0  0  0  0  0  0
   10.5625   -0.0292    0.0000 C   0  0  0  0  0  0  0  0  0  0  0  0
   10.3875  -10.8417    0.0000 C   0  0  0  0  0  0  0  0  0  0  0  0
   -1.5958    1.0958    0.0000 C   0  0  0  0  0  0  0  0  0  0  0  0
    4.5500   -0.9917    0.0000 C   0  0  0  0  0  0  0  0  0  0  0  0
   -2.9833    1.4625    0.0000 N   0  0  0  0  0  0  0  0  0  0  0  0
   10.4917   -9.3917    0.0000 N   0  0  0  0  0  0  0  0  0  0  0  0
   10.2292  -13.7125    0.0000 N   0  0  0  0  0  0  0  0  0  0  0  0
   10.6000  -14.4750    0.0000 C   0  0  0  0  0  0  0  0  0  0  0  0
    5.3542   -0.7750    0.0000 N   0  0  0  0  0  0  0  0  0  0  0  0
    9.0167  -12.9292    0.0000 C   0  0  0  0  0  0  0  0  0  0  0  0
    3.1542   -0.6167    0.0000 N   0  0  0  0  0  0  0  0  0  0  0  0
    5.9375   -1.3750    0.0000 C   0  0  0  0  0  0  0  0  0  0  0  0
    8.1542   -1.6125    0.0000 C   0  0  0  0  0  0  0  0  0  0  0  0
   -3.7875    1.2458    0.0000 C   0  0  0  0  0  0  0  0  0  0  0  0
   10.6875  -13.0167    0.0000 C   0  0  0  0  0  0  0  0  0  0  0  0
    2.5750   -0.0292    0.0000 C   0  0  0  0  0  0  0  0  0  0  0  0
   10.9417   -8.6917    0.0000 C   0  0  0  0  0  0  0  0  0  0  0  0
   10.6625   -6.5000    0.0000 C   0  0  0  0  0  0  0  0  0  0  0  0
   10.9250   -2.1625    0.0000 C   0  0  0  0  0  0  0  0  0  0  0  0
   11.0125   -0.7292    0.0000 N   0  0  0  0  0  0  0  0  0  0  0  0
    9.3625   -0.8167    0.0000 N   0  0  0  0  0  0  0  0  0  0  0  0
   11.2125   -4.3542    0.0000 C   0  0  0  0  0  0  0  0  0  0  0  0
    0.3792    0.1250    0.0000 C   0  0  0  0  0  0  0  0  0  0  0  0
   10.7500   -5.0500    0.0000 N   0  0  0  0  0  0  0  0  0  0  0  0
   11.3792   -1.4667    0.0000 C   0  0  0  0  0  0  0  0  0  0  0  0
   10.7667  -11.5875    0.0000 N   0  0  0  0  0  0  0  0  0  0  0  0
   11.1292   -5.8042    0.0000 C   0  0  0  0  0  0  0  0  0  0  0  0
    8.6667  -14.2292    0.0000 N   0  0  0  0  0  0  0  0  0  0  0  0
   10.1292  -15.1667    0.0000 C   0  0  0  0  0  0  0  0  0  0  0  0
   -1.0083    0.5083    0.0000 N   0  0  0  0  0  0  0  0  0  0  0  0
    1.1792    0.3458    0.0000 N   0  0  0  0  0  0  0  0  0  0  0  0
   11.0417   -7.2417    0.0000 N   0  0  0  0  0  0  0  0  0  0  0  0
    3.9625   -0.4042    0.0000 C   0  0  0  0  0  0  0  0  0  0  0  0
    1.7667   -0.2542    0.0000 C   0  0  0  0  0  0  0  0  0  0  0  0
    9.7375   -0.0792    0.0000 N   0  0  0  0  0  0  0  0  0  0  0  0
    9.3167  -13.7125    0.0000 C   0  0  0  0  0  0  0  0  0  0  0  0
   11.3000   -2.9167    0.0000 N   0  0  0  0  0  0  0  0  0  0  0  0
   -4.3750    1.8375    0.0000 C   0  0  0  0  0  0  0  0  0  0  0  0
   10.3167  -12.2792    0.0000 C   0  0  0  0  0  0  0  0  0  0  0  0
    1.5542   -1.0542    0.0000 C   0  0  0  0  0  0  0  0  0  0  0  0
   -4.1625    2.6458    0.0000 C   0  0  0  0  0  0  0  0  0  0  0  0
   10.5625   -7.9375    0.0000 C   0  0  0  0  0  0  0  0  0  0  0  0
    8.1917  -12.9542    0.0000 C   0  0  0  0  0  0  0  0  0  0  0  0
    9.4792  -12.2292    0.0000 C   0  0  0  0  0  0  0  0  0  0  0  0
   -5.1750    1.6208    0.0000 N   0  0  0  0  0  0  0  0  0  0  0  0
    9.8667  -19.5042    0.0000 C   0  0  0  0  0  0  0  0  0  0  0  0
   -0.2083    0.7250    0.0000 C   0  0  0  0  0  0  0  0  0  0  0  0
    9.9667  -18.0542    0.0000 N   0  0  0  0  0  0  0  0  0  0  0  0
   10.8292   -3.6125    0.0000 C   0  0  0  0  0  0  0  0  0  0  0  0
    2.1542   -1.6417    0.0000 C   0  0  0  0  0  0  0  0  0  0  0  0
   -3.3625    2.8583    0.0000 C   0  0  0  0  0  0  0  0  0  0  0  0
   10.5125  -15.9042    0.0000 N   0  0  0  0  0  0  0  0  0  0  0  0
   10.4250  -17.3625    0.0000 C   0  0  0  0  0  0  0  0  0  0  0  0
    7.9792  -13.7667    0.0000 C   0  0  0  0  0  0  0  0  0  0  0  0
   -5.3958    0.8125    0.0000 C   0  0  0  0  0  0  0  0  0  0  0  0
    6.9542   -0.3375    0.0000 O   0  0  0  0  0  0  0  0  0  0  0  0
   10.3292  -18.8042    0.0000 C   0  0  0  0  0  0  0  0  0  0  0  0
    8.0792   -0.1667    0.0000 O   0  0  0  0  0  0  0  0  0  0  0  0
    1.0292    2.5500    0.0000 C   0  0  0  0  0  0  0  0  0  0  0  0
   10.9292    0.7083    0.0000 O   0  0  0  0  0  0  0  0  0  0  0  0
    9.5625  -10.7792    0.0000 O   0  0  0  0  0  0  0  0  0  0  0  0
   -1.3833    1.8958    0.0000 O   0  0  0  0  0  0  0  0  0  0  0  0
    4.3292   -1.7917    0.0000 O   0  0  0  0  0  0  0  0  0  0  0  0
   10.0792   -2.1125    0.0000 O   0  0  0  0  0  0  0  0  0  0  0  0
    9.8250   -6.4417    0.0000 O   0  0  0  0  0  0  0  0  0  0  0  0
   11.7667   -8.7417    0.0000 O   0  0  0  0  0  0  0  0  0  0  0  0
    2.7917    0.7750    0.0000 O   0  0  0  0  0  0  0  0  0  0  0  0
   11.5167  -13.0750    0.0000 O   0  0  0  0  0  0  0  0  0  0  0  0
   -4.0083    0.4458    0.0000 O   0  0  0  0  0  0  0  0  0  0  0  0
   12.0375   -4.4000    0.0000 O   0  0  0  0  0  0  0  0  0  0  0  0
    0.1625   -0.6792    0.0000 O   0  0  0  0  0  0  0  0  0  0  0  0
    9.7375   -7.8917    0.0000 C   0  0  0  0  0  0  0  0  0  0  0  0
    9.3042  -15.1250    0.0000 O   0  0  0  0  0  0  0  0  0  0  0  0
    9.0417  -19.4417    0.0000 O   0  0  0  0  0  0  0  0  0  0  0  0
   11.6917  -10.1875    0.0000 C   0  0  0  0  0  0  0  0  0  0  0  0
   -2.6208    0.0750    0.0000 C   0  0  0  0  0  0  0  0  0  0  0  0
   11.4250  -14.5167    0.0000 C   0  0  0  0  0  0  0  0  0  0  0  0
   -3.1458    3.6750    0.0000 O   0  0  0  0  0  0  0  0  0  0  0  0
    1.9167   -2.4542    0.0000 O   0  0  0  0  0  0  0  0  0  0  0  0
   11.2500  -17.4167    0.0000 O   0  0  0  0  0  0  0  0  0  0  0  0
   -6.1917    0.5958    0.0000 O   0  0  0  0  0  0  0  0  0  0  0  0
    1.8375    2.7708    0.0000 O   0  0  0  0  0  0  0  0  0  0  0  0
    0.0125    1.5333    0.0000 C   0  0  0  0  0  0  0  0  0  0  0  0
   10.0542  -16.6000    0.0000 C   0  0  0  0  0  0  0  0  0  0  0  0
    5.7167   -2.1792    0.0000 C   0  0  0  0  0  0  0  0  0  0  0  0
    7.2000   -2.5667    0.0000 C   0  0  0  0  0  0  0  0  0  0  0  0
    4.1792    0.4000    0.0000 C   0  0  0  0  0  0  0  0  0  0  0  0
    0.8167    1.7458    0.0000 C   0  0  0  0  0  0  0  0  0  0  0  0
    9.2792   -8.5875    0.0000 C   0  0  0  0  0  0  0  0  0  0  0  0
   10.2500  -20.2500    0.0000 O   0  0  0  0  0  0  0  0  0  0  0  0
   10.0000   -3.5542    0.0000 C   0  0  0  0  0  0  0  0  0  0  0  0
    8.3667   -9.9792    0.0000 C   0  0  0  0  0  0  0  0  0  0  0  0
    2.9542   -1.4250    0.0000 O   0  0  0  0  0  0  0  0  0  0  0  0
   -2.7708    2.2750    0.0000 O   0  0  0  0  0  0  0  0  0  0  0  0
    0.4417    3.1333    0.0000 O   0  0  0  0  0  0  0  0  0  0  0  0
    8.7167   -4.2042    0.0000 S   0  0  0  0  0  0  0  0  0  0  0  0
   12.2125   -1.5250    0.0000 C   0  0  0  0  0  0  0  0  0  0  0  0
   11.9542   -5.8542    0.0000 C   0  0  0  0  0  0  0  0  0  0  0  0
    8.4542   -8.5417    0.0000 C   0  0  0  0  0  0  0  0  0  0  0  0
    9.6500   -9.3417    0.0000 C   0  0  0  0  0  0  0  0  0  0  0  0
   13.5542  -20.4542    0.0000 N   0  0  0  0  0  0  0  0  0  0  0  0
    8.0000   -9.2417    0.0000 C   0  0  0  0  0  0  0  0  0  0  0  0
    9.1917  -10.0375    0.0000 C   0  0  0  0  0  0  0  0  0  0  0  0
    8.5375   -2.3542    0.0000 C   0  0  0  0  0  0  0  0  0  0  0  0
   -2.0333   -0.5292    0.0000 O   0  0  0  0  0  0  0  0  0  0  0  0
   12.0625  -10.9292    0.0000 O   0  0  0  0  0  0  0  0  0  0  0  0
   11.8000  -15.2667    0.0000 O   0  0  0  0  0  0  0  0  0  0  0  0
    7.9125  -10.6875    0.0000 O   0  0  0  0  0  0  0  0  0  0  0  0
    9.2792    0.6208    0.0000 C   0  0  0  0  0  0  0  0  0  0  0  0
   12.3167   -6.6042    0.0000 O   0  0  0  0  0  0  0  0  0  0  0  0
   12.5792   -2.2625    0.0000 O   0  0  0  0  0  0  0  0  0  0  0  0
    7.9375   -2.9417    0.0000 C   0  0  0  0  0  0  0  0  0  0  0  0
    7.6125  -12.3667    0.0000 C   0  0  0  0  0  0  0  0  0  0  0  0
   -4.8083    0.2250    0.0000 C   0  0  0  0  0  0  0  0  0  0  0  0
    9.5417   -4.2417    0.0000 C   0  0  0  0  0  0  0  0  0  0  0  0
   11.1625  -18.8542    0.0000 C   0  0  0  0  0  0  0  0  0  0  0  0
    7.1667  -13.9750    0.0000 C   0  0  0  0  0  0  0  0  0  0  0  0
   12.7292  -20.4000    0.0000 C   0  0  0  0  0  0  0  0  0  0  0  0
   -3.4208   -0.1417    0.0000 C   0  0  0  0  0  0  0  0  0  0  0  0
   11.8875  -13.8167    0.0000 C   0  0  0  0  0  0  0  0  0  0  0  0
   12.1500   -9.4917    0.0000 C   0  0  0  0  0  0  0  0  0  0  0  0
    8.2625   -4.9000    0.0000 C   0  0  0  0  0  0  0  0  0  0  0  0
    6.3167   -2.7667    0.0000 C   0  0  0  0  0  0  0  0  0  0  0  0
    4.9292   -2.3917    0.0000 C   0  0  0  0  0  0  0  0  0  0  0  0
    3.5917    0.9833    0.0000 C   0  0  0  0  0  0  0  0  0  0  0  0
    4.9792    0.6208    0.0000 C   0  0  0  0  0  0  0  0  0  0  0  0
    9.6500    1.3625    0.0000 C   0  0  0  0  0  0  0  0  0  0  0  0
   11.5292  -19.5917    0.0000 C   0  0  0  0  0  0  0  0  0  0  0  0
   12.3667  -19.6542    0.0000 C   0  0  0  0  0  0  0  0  0  0  0  0
    6.8042  -12.5750    0.0000 C   0  0  0  0  0  0  0  0  0  0  0  0
    9.2042    1.9625    0.0000 C   0  0  0  0  0  0  0  0  0  0  0  0
    6.5917  -13.3792    0.0000 C   0  0  0  0  0  0  0  0  0  0  0  0
  2  1  1  0
 18  3  1  1
  4  8  1  0
  5 11  1  1
  6 40  1  0
  7  5  1  0
  8 35  1  0
  9 14  1  0
  4 10  1  6
 11 22  1  0
 12 20  1  0
 13 12  1  1
 17 14  1  6
 15 49  1  0
 38 16  1  1
 17  2  1  0
 18  1  1  0
 19 10  1  0
 20 44  1  0
 21 16  1  0
 22 47  1  0
 23 32  1  0
 24 30  1  0
 25  6  1  0
 26  3  1  0
 27 54  1  0
 28 36  1  0
 29 27  1  0
 30 25  1  1
 31  7  1  0
 32 29  1  1
 33 41  1  0
 34 13  1  0
 52 35  1  1
 39 36  1  6
 37 23  1  0
 38  9  1  0
 39 21  1  0
 40 26  1  0
 41 15  2  0
 42 24  1  0
 43 19  1  0
 44 31  1  6
 39 45  1  0
 43 46  1  1
 47 37  1  6
 48 15  1  0
 44 49  1  0
 50 43  1  0
 51 62  1  0
 52 28  1  0
 53 58  1  0
 54 42  1  6
 55 45  1  0
 56 46  1  0
 57 34  1  0
 58 89  1  0
 59 48  2  0
 60 50  1  0
 61  2  2  0
 62 53  1  1
 63  3  2  0
 64 93  1  0
 65  6  2  0
 66  7  2  0
 67  8  2  0
 68  9  2  0
 69 24  2  0
 70 23  2  0
 71 22  2  0
 72 21  2  0
 73 20  2  0
 74 19  2  0
 75 27  2  0
 76 28  2  0
 47 77  1  0
 78 34  2  0
 79 51  2  0
  5 80  1  0
  4 81  1  0
 13 82  1  0
 83 56  2  0
 84 55  2  0
 85 58  2  0
 86 60  2  0
 87 64  2  0
 52 88  1  0
 89 57  1  0
 17 90  1  0
 91  1  1  0
 38 92  1  0
 93 88  1  0
 94 77  1  0
 95 51  1  0
 54 96  1  0
 97108  1  0
 98 55  1  0
 99 56  1  0
100 64  1  0
101120  1  0
 30102  1  0
 32103  1  0
104 94  2  0
105 94  1  0
106123  1  0
107104  1  0
108105  2  0
 18109  1  0
 81110  1  6
 80111  1  1
 82112  1  1
113 97  1  0
114 40  1  0
115103  1  0
116102  1  0
117 91  1  0
118 48  1  0
119 60  1  0
120 96  1  0
 62121  1  0
122 59  1  0
123134  1  0
124 81  1  0
125 82  1  0
126 80  1  0
127101  1  0
128 90  1  0
129 90  1  0
130 92  1  0
131 92  1  0
132114  1  0
133121  1  0
134133  1  0
135118  2  0
136132  1  0
137135  1  0
109117  1  0
107 97  2  0
 33 59  1  0
137122  2  0
M  END

> <chembl_id>
CHEMBL439178

> <chembl_pref_name>
None

$$$$

     RDKit          2D

 20 23  0  0  0  0  0  0  0  0999 V2000
    2.7542   -4.2542    0.0000 N   0  0  0  0  0  0  0  0  0  0  0  0
    3.4792   -3.0167    0.0000 C   0  0  0  0  0  0  0  0  0  0  0  0
    3.4792   -3.8417    0.0000 C   0  0  0  0  0  0  0  0  0  0  0  0
    2.0417   -3.0125    0.0000 C   0  0  0  0  0  0  0  0  0  0  0  0
    2.0417   -3.8375    0.0000 C   0  0  0  0  0  0  0  0  0  0  0  0
    2.7500   -5.0792    0.0000 C   0  0  0  0  0  0  0  0  0  0  0  0
    2.0292   -5.4875    0.0000 N   0  0  0  0  0  0  0  0  0  0  0  0
    3.2292   -2.2292    0.0000 O   0  0  0  0  0  0  0  0  0  0  0  0
    4.3042   -3.0167    0.0000 O   0  0  0  0  0  0  0  0  0  0  0  0
    4.1917   -4.2542    0.0000 O   0  0  0  0  0  0  0  0  0  0  0  0
    1.3292   -2.6000    0.0000 C   0  0  0  0  0  0  0  0  0  0  0  0
    1.3292   -4.2542    0.0000 C   0  0  0  0  0  0  0  0  0  0  0  0
    1.2792   -5.1500    0.0000 C   0  0  0  0  0  0  0  0  0  0  0  0
    1.9375   -6.3042    0.0000 C   0  0  0  0  0  0  0  0  0  0  0  0
    3.8917   -1.7500    0.0000 C   0  0  0  0  0  0  0  0  0  0  0  0
    4.5667   -2.2292    0.0000 C   0  0  0  0  0  0  0  0  0  0  0  0
    0.6167   -3.0167    0.0000 C   0  0  0  0  0  0  0  0  0  0  0  0
    0.6167   -3.8417    0.0000 C   0  0  0  0  0  0  0  0  0  0  0  0
    1.1292   -6.4750    0.0000 C   0  0  0  0  0  0  0  0  0  0  0  0
    0.7250   -5.7542    0.0000 C   0  0  0  0  0  0  0  0  0  0  0  0
  2  3  1  0
  3  1  1  0
  4  5  1  0
  5  1  1  0
  6  1  1  0
  7  6  1  0
  8  2  1  0
  9  2  1  0
 10  3  2  0
 11  4  2  0
 12  5  2  0
 13  7  1  0
 14  7  1  0
 15  8  1  0
 16  9  1  0
 17 18  2  0
 18 12  1  0
 19 14  1  0
 20 13  1  0
  2  4  1  0
 19 20  1  0
 17 11  1  0
 15 16  1  0
M  END

> <chembl_id>
CHEMBL266541

> <chembl_pref_name>
None

$$$$

     RDKit          2D

 13 14  0  0  0  0  0  0  0  0999 V2000
   -2.1958   -0.8667    0.0000 C   0  0  0  0  0  0  0  0  0  0  0  0
   -2.1833   -1.4667    0.0000 C   0  0  0  0  0  0  0  0  0  0  0  0
   -2.7125   -0.5750    0.0000 C   0  0  0  0  0  0  0  0  0  0  0  0
   -2.7125   -1.7792    0.0000 C   0  0  0  0  0  0  0  0  0  0  0  0
   -3.2333   -0.8792    0.0000 C   0  0  0  0  0  0  0  0  0  0  0  0
   -3.2333   -1.4792    0.0000 C   0  0  0  0  0  0  0  0  0  0  0  0
   -1.1583   -0.8542    0.0000 C   0  0  0  0  0  0  0  0  0  0  0  0
   -1.6625   -1.7667    0.0000 C   0  0  0  0  0  0  0  0  0  0  0  0
   -1.1500   -1.4542    0.0000 C   0  0  0  0  0  0  0  0  0  0  0  0
   -0.6333   -1.7542    0.0000 N   0  0  0  0  0  0  0  0  0  0  0  0
   -3.8083   -0.6917    0.0000 O   0  0  0  0  0  0  0  0  0  0  0  0
   -3.7500   -1.7792    0.0000 C   0  0  0  0  0  0  0  0  0  0  0  0
   -3.9333   -0.1042    0.0000 C   0  0  0  0  0  0  0  0  0  0  0  0
  2  1  1  0
  3  1  2  0
  4  2  2  0
  5  3  1  0
  6  5  2  0
  7  1  1  0
  8  2  1  0
  9  7  1  0
 10  9  1  0
 11  5  1  0
 12  6  1  0
 13 11  1  0
  8  9  1  0
  4  6  1  0
M  END

> <chembl_id>
CHEMBL6554

> <chembl_pref_name>
None

$$$$

     RDKit          2D

 37 40  0  0  1  0  0  0  0  0999 V2000
   -7.2792   -0.5917    0.0000 C   0  0  0  0  0  0  0  0  0  0  0  0
   -6.5667   -1.0042    0.0000 C   0  0  0  0  0  0  0  0  0  0  0  0
   -7.9917   -1.0000    0.0000 N   0  0  0  0  0  0  0  0  0  0  0  0
   -7.2792   -2.2375    0.0000 N   0  0  0  0  0  0  0  0  0  0  0  0
   -0.1583    0.2583    0.0000 N   0  0  0  0  0  0  0  0  0  0  0  0
   -6.5750   -1.8292    0.0000 C   0  0  0  0  0  0  0  0  0  0  0  0
   -7.9917   -1.8167    0.0000 C   0  0  0  0  0  0  0  0  0  0  0  0
   -0.8708    0.6708    0.0000 C   0  0  0  0  0  0  0  0  0  0  0  0
    0.5542    0.6708    0.0000 C   0  0  0  0  0  0  0  0  0  0  0  0
    1.2750    0.2625    0.0000 C   0  0  0  0  0  0  0  0  0  0  0  0
   -3.7208   -0.9917    0.0000 N   0  0  0  0  0  0  0  0  0  0  0  0
   -3.0250   -2.2542    0.0000 C   0  0  0  0  0  0  0  0  0  0  0  0
   -2.3208   -2.7042    0.0000 C   0  0  0  0  0  0  0  0  0  0  0  0
   -5.8625   -0.5875    0.0000 C   0  0  0  0  0  0  0  0  0  0  0  0
   -1.5833    0.2500    0.0000 C   0  0  0  0  0  0  0  0  0  0  0  0
    0.5542    1.4958    0.0000 C   0  0  0  0  0  0  0  0  0  0  0  0
   -3.0083   -0.5792    0.0000 C   0  0  0  0  0  0  0  0  0  0  0  0
   -7.2667    0.2333    0.0000 O   0  0  0  0  0  0  0  0  0  0  0  0
   -4.4333   -0.5792    0.0000 C   0  0  0  0  0  0  0  0  0  0  0  0
   -0.8708    1.4958    0.0000 O   0  0  0  0  0  0  0  0  0  0  0  0
   -5.1458   -1.0000    0.0000 C   0  0  0  0  0  0  0  0  0  0  0  0
    1.2792   -0.5625    0.0000 O   0  0  0  0  0  0  0  0  0  0  0  0
   -5.8625   -2.2417    0.0000 C   0  0  0  0  0  0  0  0  0  0  0  0
   -2.3000    0.6583    0.0000 C   0  0  0  0  0  0  0  0  0  0  0  0
   -1.5833   -0.5750    0.0000 C   0  0  0  0  0  0  0  0  0  0  0  0
   -3.0125    0.2458    0.0000 C   0  0  0  0  0  0  0  0  0  0  0  0
   -2.2958   -0.9917    0.0000 C   0  0  0  0  0  0  0  0  0  0  0  0
    1.2667    1.9125    0.0000 C   0  0  0  0  0  0  0  0  0  0  0  0
   -0.1583    1.9083    0.0000 C   0  0  0  0  0  0  0  0  0  0  0  0
   -3.7208   -1.8167    0.0000 C   0  0  0  0  0  0  0  0  0  0  0  0
    1.9875    0.6833    0.0000 O   0  0  0  0  0  0  0  0  0  0  0  0
   -5.1458   -1.8292    0.0000 C   0  0  0  0  0  0  0  0  0  0  0  0
    0.5500    3.1458    0.0000 C   0  0  0  0  0  0  0  0  0  0  0  0
   -0.1708    2.7250    0.0000 C   0  0  0  0  0  0  0  0  0  0  0  0
    1.2667    2.7375    0.0000 C   0  0  0  0  0  0  0  0  0  0  0  0
    0.5417    3.9708    0.0000 F   0  0  0  0  0  0  0  0  0  0  0  0
   -8.7125   -2.2292    0.0000 C   0  0  0  0  0  0  0  0  0  0  0  0
  2  1  1  0
  3  1  2  0
  4  7  2  0
  5  8  1  0
  6  2  2  0
  7  3  1  0
  8 15  1  0
  9  5  1  0
 10  9  1  0
 11 19  1  0
 12 30  1  0
 13 12  3  0
 14  2  1  0
 15 25  2  0
  9 16  1  6
 17 11  1  0
 18  1  1  0
 19 21  1  0
 20  8  2  0
 21 14  2  0
 22 10  2  0
 23  6  1  0
 24 26  2  0
 25 27  1  0
 26 17  1  0
 27 17  2  0
 28 16  2  0
 29 16  1  0
 30 11  1  0
 31 10  1  0
 32 21  1  0
 33 34  1  0
 34 29  2  0
 35 28  1  0
 36 33  1  0
 37  7  1  0
  6  4  1  0
 23 32  2  0
 15 24  1  0
 35 33  2  0
M  END

> <chembl_id>
CHEMBL265669

> <chembl_pref_name>
None

$$$$

     RDKit          2D

 27 29  0  0  0  0  0  0  0  0999 V2000
   -5.0458   -0.8542    0.0000 C   0  0  0  0  0  0  0  0  0  0  0  0
   -4.3458   -1.2667    0.0000 C   0  0  0  0  0  0  0  0  0  0  0  0
   -5.7583   -1.2542    0.0000 N   0  0  0  0  0  0  0  0  0  0  0  0
   -5.0583   -2.4917    0.0000 N   0  0  0  0  0  0  0  0  0  0  0  0
   -4.3458   -2.0875    0.0000 C   0  0  0  0  0  0  0  0  0  0  0  0
   -5.7708   -2.0792    0.0000 C   0  0  0  0  0  0  0  0  0  0  0  0
    1.3667    0.4083    0.0000 C   0  0  0  0  0  0  0  0  0  0  0  0
   -1.4833   -1.2500    0.0000 N   0  0  0  0  0  0  0  0  0  0  0  0
   -0.7875   -2.5167    0.0000 C   0  0  0  0  0  0  0  0  0  0  0  0
   -0.0833   -2.9625    0.0000 C   0  0  0  0  0  0  0  0  0  0  0  0
   -3.6333   -0.8417    0.0000 C   0  0  0  0  0  0  0  0  0  0  0  0
    0.6542   -0.0042    0.0000 C   0  0  0  0  0  0  0  0  0  0  0  0
   -0.7708   -0.8375    0.0000 C   0  0  0  0  0  0  0  0  0  0  0  0
   -5.0375   -0.0292    0.0000 O   0  0  0  0  0  0  0  0  0  0  0  0
   -2.2000   -0.8417    0.0000 C   0  0  0  0  0  0  0  0  0  0  0  0
   -2.9125   -1.2542    0.0000 C   0  0  0  0  0  0  0  0  0  0  0  0
    1.3625    1.2333    0.0000 O   0  0  0  0  0  0  0  0  0  0  0  0
   -3.6333   -2.5000    0.0000 C   0  0  0  0  0  0  0  0  0  0  0  0
    0.6542   -0.8292    0.0000 C   0  0  0  0  0  0  0  0  0  0  0  0
   -0.0708    0.4000    0.0000 C   0  0  0  0  0  0  0  0  0  0  0  0
   -0.0583   -1.2500    0.0000 C   0  0  0  0  0  0  0  0  0  0  0  0
   -0.7833   -0.0167    0.0000 C   0  0  0  0  0  0  0  0  0  0  0  0
    2.0792    0.0000    0.0000 N   0  0  0  0  0  0  0  0  0  0  0  0
   -1.4833   -2.0750    0.0000 C   0  0  0  0  0  0  0  0  0  0  0  0
   -2.9125   -2.0875    0.0000 C   0  0  0  0  0  0  0  0  0  0  0  0
   -6.4792   -2.4875    0.0000 C   0  0  0  0  0  0  0  0  0  0  0  0
    2.7917    0.4125    0.0000 C   0  0  0  0  0  0  0  0  0  0  0  0
  2  1  1  0
  3  1  2  0
  4  6  2  0
  5  2  2  0
  6  3  1  0
  7 12  1  0
  8 15  1  0
  9 24  1  0
 10  9  3  0
 11  2  1  0
 12 20  1  0
 13  8  1  0
 14  1  1  0
 15 16  1  0
 16 11  2  0
 17  7  2  0
 18  5  1  0
 19 21  1  0
 20 22  2  0
 21 13  2  0
 22 13  1  0
 23  7  1  0
 24  8  1  0
 25 16  1  0
 26  6  1  0
 27 23  1  0
  4  5  1  0
 25 18  2  0
 12 19  2  0
M  END

> <chembl_id>
CHEMBL6498

> <chembl_pref_name>
None

$$$$

     RDKit          2D

 24 26  0  0  0  0  0  0  0  0999 V2000
    4.3250   -4.0917    0.0000 S   0  0  0  0  0  0  0  0  0  0  0  0
    5.0375   -4.5042    0.0000 N   0  0  0  0  0  0  0  0  0  0  0  0
    4.3250   -3.2667    0.0000 C   0  0  0  0  0  0  0  0  0  0  0  0
    5.7500   -4.0792    0.0000 C   0  0  0  0  0  0  0  0  0  0  0  0
    3.6042   -2.8542    0.0000 C   0  0  0  0  0  0  0  0  0  0  0  0
    3.6042   -2.0250    0.0000 C   0  0  0  0  0  0  0  0  0  0  0  0
    2.8792   -1.6042    0.0000 C   0  0  0  0  0  0  0  0  0  0  0  0
    6.4792   -4.5000    0.0000 N   0  0  0  0  0  0  0  0  0  0  0  0
    5.7417   -3.2542    0.0000 N   0  0  0  0  0  0  0  0  0  0  0  0
    3.4917   -4.0792    0.0000 O   0  0  0  0  0  0  0  0  0  0  0  0
    4.3167   -4.9250    0.0000 O   0  0  0  0  0  0  0  0  0  0  0  0
    2.8792   -0.7792    0.0000 N   0  0  0  0  0  0  0  0  0  0  0  0
    7.1875   -3.2417    0.0000 C   0  0  0  0  0  0  0  0  0  0  0  0
    7.1875   -4.0792    0.0000 C   0  0  0  0  0  0  0  0  0  0  0  0
    6.4625   -2.8375    0.0000 C   0  0  0  0  0  0  0  0  0  0  0  0
    7.8917   -2.8292    0.0000 Br  0  0  0  0  0  0  0  0  0  0  0  0
    5.0417   -2.8500    0.0000 C   0  0  0  0  0  0  0  0  0  0  0  0
    2.8792   -3.2667    0.0000 C   0  0  0  0  0  0  0  0  0  0  0  0
    4.3167   -1.6042    0.0000 C   0  0  0  0  0  0  0  0  0  0  0  0
    2.1667   -2.0250    0.0000 C   0  0  0  0  0  0  0  0  0  0  0  0
    5.0417   -2.0167    0.0000 C   0  0  0  0  0  0  0  0  0  0  0  0
    2.1667   -2.8542    0.0000 C   0  0  0  0  0  0  0  0  0  0  0  0
    2.1625   -0.3625    0.0000 C   0  0  0  0  0  0  0  0  0  0  0  0
    3.6042   -0.3542    0.0000 C   0  0  0  0  0  0  0  0  0  0  0  0
  2  1  1  0
  3  1  1  0
  4  2  1  0
  5  3  1  0
  6  5  2  0
  7  6  1  0
  8  4  1  0
  9  4  2  0
 10  1  2  0
 11  1  2  0
 12  7  1  0
 13 15  2  0
 14  8  2  0
 15  9  1  0
 16 13  1  0
 17  3  2  0
 18  5  1  0
 19 21  2  0
 20 22  1  0
 21 17  1  0
 22 18  2  0
 23 12  1  0
 24 12  1  0
 19  6  1  0
 13 14  1  0
 20  7  2  0
M  END

> <chembl_id>
CHEMBL6630

> <chembl_pref_name>
None

$$$$

     RDKit          2D

 30 32  0  0  0  0  0  0  0  0999 V2000
    4.2125   -4.0625    0.0000 C   0  0  0  0  0  0  0  0  0  0  0  0
    3.5125   -3.6500    0.0000 C   0  0  0  0  0  0  0  0  0  0  0  0
    4.9250   -3.6542    0.0000 C   0  0  0  0  0  0  0  0  0  0  0  0
    4.2042   -4.8875    0.0000 C   0  0  0  0  0  0  0  0  0  0  0  0
    3.5125   -2.8167    0.0000 C   0  0  0  0  0  0  0  0  0  0  0  0
    4.9292   -2.8417    0.0000 C   0  0  0  0  0  0  0  0  0  0  0  0
    5.6417   -4.0667    0.0000 C   0  0  0  0  0  0  0  0  0  0  0  0
    3.4917   -5.2917    0.0000 C   0  0  0  0  0  0  0  0  0  0  0  0
    4.9167   -5.3000    0.0000 C   0  0  0  0  0  0  0  0  0  0  0  0
    4.2000   -6.5292    0.0000 C   0  0  0  0  0  0  0  0  0  0  0  0
    9.9042   -2.4167    0.0000 N   0  0  0  0  0  0  0  0  0  0  0  0
    6.3542   -2.8500    0.0000 C   0  0  0  0  0  0  0  0  0  0  0  0
    3.4917   -6.1125    0.0000 C   0  0  0  0  0  0  0  0  0  0  0  0
    4.9167   -6.1250    0.0000 C   0  0  0  0  0  0  0  0  0  0  0  0
    6.3625   -3.6667    0.0000 C   0  0  0  0  0  0  0  0  0  0  0  0
    5.6542   -2.4292    0.0000 C   0  0  0  0  0  0  0  0  0  0  0  0
    4.2042   -7.3667    0.0000 I   0  0  0  0  0  0  0  0  0  0  0  0
    2.7917   -4.0542    0.0000 C   0  0  0  0  0  0  0  0  0  0  0  0
    8.4875   -2.4292    0.0000 C   0  0  0  0  0  0  0  0  0  0  0  0
    7.0667   -2.4417    0.0000 O   0  0  0  0  0  0  0  0  0  0  0  0
    9.1917   -2.8375    0.0000 C   0  0  0  0  0  0  0  0  0  0  0  0
    7.7667   -2.8417    0.0000 C   0  0  0  0  0  0  0  0  0  0  0  0
    4.2250   -2.4125    0.0000 C   0  0  0  0  0  0  0  0  0  0  0  0
    2.7917   -2.3917    0.0000 C   0  0  0  0  0  0  0  0  0  0  0  0
   10.6125   -2.8167    0.0000 C   0  0  0  0  0  0  0  0  0  0  0  0
    9.8917   -1.5917    0.0000 C   0  0  0  0  0  0  0  0  0  0  0  0
    2.7792   -4.8667    0.0000 C   0  0  0  0  0  0  0  0  0  0  0  0
    2.8042   -1.5792    0.0000 C   0  0  0  0  0  0  0  0  0  0  0  0
    4.2292   -1.5875    0.0000 C   0  0  0  0  0  0  0  0  0  0  0  0
    3.5250   -1.1667    0.0000 C   0  0  0  0  0  0  0  0  0  0  0  0
  2  1  2  0
  3  1  1  0
  4  1  1  0
  5  2  1  0
  6  3  1  0
  7  3  2  0
  8  4  2  0
  9  4  1  0
 10 14  1  0
 11 21  1  0
 12 15  2  0
 13  8  1  0
 14  9  2  0
 15  7  1  0
 16  6  2  0
 17 10  1  0
 18  2  1  0
 19 22  1  0
 20 12  1  0
 21 19  1  0
 22 20  1  0
 23  5  1  0
 24  5  2  0
 25 11  1  0
 26 11  1  0
 27 18  1  0
 28 24  1  0
 29 23  2  0
 30 28  2  0
 10 13  2  0
 12 16  1  0
 30 29  1  0
M  END

> <chembl_id>
CHEMBL266086

> <chembl_pref_name>
None

$$$$

     RDKit          2D

 22 23  0  0  0  0  0  0  0  0999 V2000
    5.4500   -3.5917    0.0000 C   0  0  0  0  0  0  0  0  0  0  0  0
    4.0292   -3.5917    0.0000 N   0  0  0  0  0  0  0  0  0  0  0  0
    6.1667   -3.1792    0.0000 C   0  0  0  0  0  0  0  0  0  0  0  0
    4.0292   -4.4167    0.0000 N   0  0  0  0  0  0  0  0  0  0  0  0
    5.4500   -4.4167    0.0000 C   0  0  0  0  0  0  0  0  0  0  0  0
    4.7375   -3.1750    0.0000 C   0  0  0  0  0  0  0  0  0  0  0  0
    4.7375   -4.8250    0.0000 C   0  0  0  0  0  0  0  0  0  0  0  0
    6.8792   -3.5917    0.0000 N   0  0  0  0  0  0  0  0  0  0  0  0
    8.3042   -3.6000    0.0000 C   0  0  0  0  0  0  0  0  0  0  0  0
    6.1667   -2.3542    0.0000 O   0  0  0  0  0  0  0  0  0  0  0  0
    4.7375   -7.2917    0.0000 N   0  0  0  0  0  0  0  0  0  0  0  0
    8.3042   -4.4250    0.0000 O   0  0  0  0  0  0  0  0  0  0  0  0
    4.7375   -5.6500    0.0000 C   0  0  0  0  0  0  0  0  0  0  0  0
    7.5917   -3.1792    0.0000 C   0  0  0  0  0  0  0  0  0  0  0  0
    4.7375   -2.3500    0.0000 Cl  0  0  0  0  0  0  0  0  0  0  0  0
    9.0250   -3.1875    0.0000 O   0  0  0  0  0  0  0  0  0  0  0  0
    4.0167   -6.8792    0.0000 C   0  0  0  0  0  0  0  0  0  0  0  0
    5.4542   -6.8792    0.0000 C   0  0  0  0  0  0  0  0  0  0  0  0
    4.0167   -6.0542    0.0000 C   0  0  0  0  0  0  0  0  0  0  0  0
    5.4500   -6.0542    0.0000 C   0  0  0  0  0  0  0  0  0  0  0  0
    9.7375   -3.6042    0.0000 C   0  0  0  0  0  0  0  0  0  0  0  0
   10.4542   -3.1917    0.0000 C   0  0  0  0  0  0  0  0  0  0  0  0
  2  6  2  0
  3  1  1  0
  4  2  1  0
  5  1  2  0
  6  1  1  0
  7  5  1  0
  8  3  1  0
  9 14  1  0
 10  3  2  0
 11 18  1  0
 12  9  2  0
 13  7  1  0
 14  8  1  0
 15  6  1  0
 16  9  1  0
 17 19  1  0
 18 20  2  0
 19 13  2  0
 20 13  1  0
 21 16  1  0
 22 21  1  0
  4  7  2  0
 17 11  2  0
M  END

> <chembl_id>
CHEMBL6486

> <chembl_pref_name>
None

$$$$

     RDKit          2D

 25 27  0  0  0  0  0  0  0  0999 V2000
    5.4500   -3.5917    0.0000 C   0  0  0  0  0  0  0  0  0  0  0  0
    4.0292   -3.5917    0.0000 N   0  0  0  0  0  0  0  0  0  0  0  0
    6.1667   -3.1792    0.0000 C   0  0  0  0  0  0  0  0  0  0  0  0
    4.0292   -4.4167    0.0000 N   0  0  0  0  0  0  0  0  0  0  0  0
    5.4500   -4.4167    0.0000 C   0  0  0  0  0  0  0  0  0  0  0  0
    4.7375   -3.1750    0.0000 C   0  0  0  0  0  0  0  0  0  0  0  0
    4.7375   -4.8250    0.0000 C   0  0  0  0  0  0  0  0  0  0  0  0
    9.0167   -3.1875    0.0000 C   0  0  0  0  0  0  0  0  0  0  0  0
    6.8792   -3.5917    0.0000 N   0  0  0  0  0  0  0  0  0  0  0  0
    8.3042   -3.6000    0.0000 C   0  0  0  0  0  0  0  0  0  0  0  0
    9.7292   -3.6000    0.0000 C   0  0  0  0  0  0  0  0  0  0  0  0
    7.5917   -3.1792    0.0000 C   0  0  0  0  0  0  0  0  0  0  0  0
    6.1667   -2.3542    0.0000 O   0  0  0  0  0  0  0  0  0  0  0  0
    4.7375   -7.2917    0.0000 N   0  0  0  0  0  0  0  0  0  0  0  0
    4.7375   -5.6500    0.0000 C   0  0  0  0  0  0  0  0  0  0  0  0
    8.3042   -4.4250    0.0000 C   0  0  0  0  0  0  0  0  0  0  0  0
    9.7292   -4.4292    0.0000 C   0  0  0  0  0  0  0  0  0  0  0  0
    4.7375   -2.3500    0.0000 Cl  0  0  0  0  0  0  0  0  0  0  0  0
    9.0167   -2.3625    0.0000 Cl  0  0  0  0  0  0  0  0  0  0  0  0
    9.0167   -4.8375    0.0000 C   0  0  0  0  0  0  0  0  0  0  0  0
   10.4500   -4.8417    0.0000 Cl  0  0  0  0  0  0  0  0  0  0  0  0
    5.4542   -6.8792    0.0000 C   0  0  0  0  0  0  0  0  0  0  0  0
    4.0167   -6.8792    0.0000 C   0  0  0  0  0  0  0  0  0  0  0  0
    5.4500   -6.0542    0.0000 C   0  0  0  0  0  0  0  0  0  0  0  0
    4.0167   -6.0542    0.0000 C   0  0  0  0  0  0  0  0  0  0  0  0
  2  6  2  0
  3  1  1  0
  4  2  1  0
  5  1  2  0
  6  1  1  0
  7  5  1  0
  8 10  1  0
  9  3  1  0
 10 12  1  0
 11  8  2  0
 12  9  1  0
 13  3  2  0
 14 23  2  0
 15  7  1  0
 16 10  2  0
 17 20  2  0
 18  6  1  0
 19  8  1  0
 20 16  1  0
 21 17  1  0
 22 24  2  0
 23 25  1  0
 24 15  1  0
 25 15  2  0
  4  7  2  0
 14 22  1  0
 11 17  1  0
M  END

> <chembl_id>
CHEMBL6487

> <chembl_pref_name>
None

$$$$

     RDKit          2D

 27 29  0  0  0  0  0  0  0  0999 V2000
    7.6125   -6.2542    0.0000 C   0  0  0  0  0  0  0  0  0  0  0  0
    7.1292   -6.6042    0.0000 N   0  0  0  0  0  0  0  0  0  0  0  0
    8.1000   -6.6042    0.0000 O   0  0  0  0  0  0  0  0  0  0  0  0
    4.4292   -6.2667    0.0000 C   0  0  0  0  0  0  0  0  0  0  0  0
    4.8500   -5.8500    0.0000 C   0  0  0  0  0  0  0  0  0  0  0  0
    3.8417   -6.2042    0.0000 C   0  0  0  0  0  0  0  0  0  0  0  0
    3.5167   -5.7000    0.0000 C   0  0  0  0  0  0  0  0  0  0  0  0
    6.5625   -6.4250    0.0000 C   0  0  0  0  0  0  0  0  0  0  0  0
    7.9125   -7.1792    0.0000 C   0  0  0  0  0  0  0  0  0  0  0  0
    7.3125   -7.1792    0.0000 C   0  0  0  0  0  0  0  0  0  0  0  0
    7.6125   -5.6542    0.0000 O   0  0  0  0  0  0  0  0  0  0  0  0
    5.4167   -6.0542    0.0000 C   0  0  0  0  0  0  0  0  0  0  0  0
    8.3750   -8.7000    0.0000 C   0  0  0  0  0  0  0  0  0  0  0  0
    4.7792   -5.2500    0.0000 C   0  0  0  0  0  0  0  0  0  0  0  0
    4.2750   -4.9375    0.0000 C   0  0  0  0  0  0  0  0  0  0  0  0
    3.7125   -5.1375    0.0000 C   0  0  0  0  0  0  0  0  0  0  0  0
    8.0250   -8.2167    0.0000 N   0  0  0  0  0  0  0  0  0  0  0  0
    3.5292   -6.7250    0.0000 O   0  0  0  0  0  0  0  0  0  0  0  0
    8.1292   -9.2500    0.0000 O   0  0  0  0  0  0  0  0  0  0  0  0
    6.1167   -6.8250    0.0000 C   0  0  0  0  0  0  0  0  0  0  0  0
    6.4375   -5.8375    0.0000 C   0  0  0  0  0  0  0  0  0  0  0  0
    5.8667   -5.6500    0.0000 C   0  0  0  0  0  0  0  0  0  0  0  0
    5.5417   -6.6417    0.0000 C   0  0  0  0  0  0  0  0  0  0  0  0
    8.2667   -7.6667    0.0000 C   0  0  0  0  0  0  0  0  0  0  0  0
    2.9167   -5.7625    0.0000 O   0  0  0  0  0  0  0  0  0  0  0  0
    8.9667   -8.6375    0.0000 C   0  0  0  0  0  0  0  0  0  0  0  0
    2.6750   -6.3042    0.0000 C   0  0  0  0  0  0  0  0  0  0  0  0
  2  1  1  0
  3  1  1  0
  4  5  2  0
  5 12  1  0
  6  4  1  0
  7  6  1  0
  8  2  1  0
  9  3  1  0
 10  2  1  0
 11  1  2  0
 12 22  2  0
 13 17  1  0
 14  5  1  0
 15 14  2  0
 16 15  1  0
 17 24  1  0
 18  6  2  0
 19 13  2  0
 20  8  1  0
 21  8  2  0
 22 21  1  0
 23 20  2  0
 24  9  1  0
 25  7  1  0
 26 13  1  0
 27 25  1  0
 10  9  1  0
 23 12  1  0
 16  7  2  0
M  END

> <chembl_id>
CHEMBL269368

> <chembl_pref_name>
None

$$$$

     RDKit          2D

 33 36  0  0  1  0  0  0  0  0999 V2000
    4.4375   -4.2250    0.0000 C   0  0  0  0  0  0  0  0  0  0  0  0
    3.6542   -4.4750    0.0000 C   0  0  0  0  0  0  0  0  0  0  0  0
    4.2625   -5.0292    0.0000 C   0  0  0  0  0  0  0  0  0  0  0  0
    2.8500   -2.5417    0.0000 C   0  0  0  0  0  0  0  0  0  0  0  0
    2.0500   -2.5042    0.0000 C   0  0  0  0  0  0  0  0  0  0  0  0
    3.2250   -3.1167    0.0000 C   0  0  0  0  0  0  0  0  0  0  0  0
    3.0500   -3.9167    0.0000 C   0  0  0  0  0  0  0  0  0  0  0  0
    3.1375   -1.8000    0.0000 C   0  0  0  0  0  0  0  0  0  0  0  0
    1.8417   -1.7292    0.0000 C   0  0  0  0  0  0  0  0  0  0  0  0
    5.1750   -4.6000    0.0000 O   0  0  0  0  0  0  0  0  0  0  0  0
    2.5042   -1.2917    0.0000 C   0  0  0  0  0  0  0  0  0  0  0  0
    4.6250   -3.4167    0.0000 C   0  0  0  0  0  0  0  0  0  0  0  0
    4.0042   -2.8667    0.0000 C   0  0  0  0  0  0  0  0  0  0  0  0
    5.8667   -4.1500    0.0000 C   0  0  0  0  0  0  0  0  0  0  0  0
    2.4417   -4.2917    0.0000 C   0  0  0  0  0  0  0  0  0  0  0  0
    1.7000   -3.9792    0.0000 C   0  0  0  0  0  0  0  0  0  0  0  0
    1.5167   -3.1500    0.0000 C   0  0  0  0  0  0  0  0  0  0  0  0
    6.6000   -4.5250    0.0000 C   0  0  0  0  0  0  0  0  0  0  0  0
    1.0750   -1.4292    0.0000 O   0  0  0  0  0  0  0  0  0  0  0  0
    5.8250   -3.3250    0.0000 O   0  0  0  0  0  0  0  0  0  0  0  0
    1.2417   -2.3167    0.0000 O   0  0  0  0  0  0  0  0  0  0  0  0
    3.4375   -2.3167    0.0000 O   0  0  0  0  0  0  0  0  0  0  0  0
    7.2917   -4.0667    0.0000 C   0  0  0  0  0  0  0  0  0  0  0  0
    5.0000   -5.4042    0.0000 C   0  0  0  0  0  0  0  0  0  0  0  0
    4.0875   -5.8292    0.0000 C   0  0  0  0  0  0  0  0  0  0  0  0
    2.5625   -0.4667    0.0000 C   0  0  0  0  0  0  0  0  0  0  0  0
    4.1792   -2.0625    0.0000 C   0  0  0  0  0  0  0  0  0  0  0  0
    1.0667   -4.5042    0.0000 C   0  0  0  0  0  0  0  0  0  0  0  0
    1.2125   -5.3167    0.0000 O   0  0  0  0  0  0  0  0  0  0  0  0
    6.6500   -5.3500    0.0000 C   0  0  0  0  0  0  0  0  0  0  0  0
    7.2500   -3.2500    0.0000 C   0  0  0  0  0  0  0  0  0  0  0  0
    3.0375   -4.7417    0.0000 H   0  0  0  0  0  0  0  0  0  0  0  0
    3.6542   -5.2917    0.0000 H   0  0  0  0  0  0  0  0  0  0  0  0
  2  1  1  0
  3  1  1  0
  4  6  1  0
  5  4  1  0
  6 13  1  0
  7  2  1  0
  8  4  1  0
  9  5  1  0
  1 10  1  6
 11  8  2  0
 12  1  1  0
 13 12  1  0
 14 10  1  0
 15  7  1  0
 16 15  2  0
 17 16  1  0
 18 14  1  0
 19  9  2  0
 20 14  2  0
  5 21  1  1
  6 22  1  6
 23 18  2  0
  3 24  1  0
  3 25  1  0
 26 11  1  0
 13 27  1  6
 28 16  1  0
 29 28  1  0
 30 18  1  0
 31 23  1  0
  7 32  1  1
  2 33  1  6
  3  2  1  0
  7  6  1  0
 17  5  1  0
  9 11  1  0
M  END

> <chembl_id>
CHEMBL415108

> <chembl_pref_name>
None

$$$$

     RDKit          2D

134137  0  0  1  0  0  0  0  0999 V2000
    7.6542   -1.3292    0.0000 N   0  0  0  0  0  0  0  0  0  0  0  0
    7.0667   -0.7375    0.0000 C   0  0  0  0  0  0  0  0  0  0  0  0
    8.8292   -0.4500    0.0000 C   0  0  0  0  0  0  0  0  0  0  0  0
   -2.0458    1.3333    0.0000 C   0  0  0  0  0  0  0  0  0  0  0  0
   11.3917   -9.8667    0.0000 C   0  0  0  0  0  0  0  0  0  0  0  0
   10.8417    0.4000    0.0000 C   0  0  0  0  0  0  0  0  0  0  0  0
   10.9500  -10.5792    0.0000 C   0  0  0  0  0  0  0  0  0  0  0  0
   -1.2333    1.5375    0.0000 C   0  0  0  0  0  0  0  0  0  0  0  0
    4.8667   -0.5875    0.0000 C   0  0  0  0  0  0  0  0  0  0  0  0
   11.0042   -9.1042    0.0000 N   0  0  0  0  0  0  0  0  0  0  0  0
   -2.6250    1.9208    0.0000 N   0  0  0  0  0  0  0  0  0  0  0  0
   10.8542  -13.5167    0.0000 N   0  0  0  0  0  0  0  0  0  0  0  0
   11.2375  -14.2750    0.0000 C   0  0  0  0  0  0  0  0  0  0  0  0
    5.6792   -0.3542    0.0000 N   0  0  0  0  0  0  0  0  0  0  0  0
    9.6292  -12.7417    0.0000 C   0  0  0  0  0  0  0  0  0  0  0  0
    3.5000   -0.1917    0.0000 N   0  0  0  0  0  0  0  0  0  0  0  0
    6.2667   -0.9542    0.0000 C   0  0  0  0  0  0  0  0  0  0  0  0
    8.4625   -1.2042    0.0000 C   0  0  0  0  0  0  0  0  0  0  0  0
   11.2917  -12.8125    0.0000 C   0  0  0  0  0  0  0  0  0  0  0  0
    2.9167    0.4000    0.0000 C   0  0  0  0  0  0  0  0  0  0  0  0
   11.4417   -8.3917    0.0000 C   0  0  0  0  0  0  0  0  0  0  0  0
   11.1125   -6.1667    0.0000 C   0  0  0  0  0  0  0  0  0  0  0  0
   11.2500   -1.7625    0.0000 C   0  0  0  0  0  0  0  0  0  0  0  0
   -3.4125    1.7125    0.0000 C   0  0  0  0  0  0  0  0  0  0  0  0
   11.2917   -0.2917    0.0000 N   0  0  0  0  0  0  0  0  0  0  0  0
    9.6542   -0.4000    0.0000 N   0  0  0  0  0  0  0  0  0  0  0  0
   11.5875   -3.9792    0.0000 C   0  0  0  0  0  0  0  0  0  0  0  0
    0.7292    0.5625    0.0000 C   0  0  0  0  0  0  0  0  0  0  0  0
   11.1542   -4.6875    0.0000 N   0  0  0  0  0  0  0  0  0  0  0  0
   11.6917   -1.0542    0.0000 C   0  0  0  0  0  0  0  0  0  0  0  0
   11.3417  -11.3417    0.0000 N   0  0  0  0  0  0  0  0  0  0  0  0
   11.5417   -5.4542    0.0000 C   0  0  0  0  0  0  0  0  0  0  0  0
    9.3167  -14.0792    0.0000 N   0  0  0  0  0  0  0  0  0  0  0  0
   10.8042  -14.9917    0.0000 C   0  0  0  0  0  0  0  0  0  0  0  0
   -0.6500    0.9458    0.0000 N   0  0  0  0  0  0  0  0  0  0  0  0
    1.5375    0.7833    0.0000 N   0  0  0  0  0  0  0  0  0  0  0  0
   11.4792   -6.9292    0.0000 N   0  0  0  0  0  0  0  0  0  0  0  0
    4.2917    0.0333    0.0000 C   0  0  0  0  0  0  0  0  0  0  0  0
    2.1167    0.1833    0.0000 C   0  0  0  0  0  0  0  0  0  0  0  0
   10.0292    0.3708    0.0000 N   0  0  0  0  0  0  0  0  0  0  0  0
    9.9500  -13.5167    0.0000 C   0  0  0  0  0  0  0  0  0  0  0  0
   11.6417   -2.5167    0.0000 N   0  0  0  0  0  0  0  0  0  0  0  0
   10.8917  -12.0542    0.0000 C   0  0  0  0  0  0  0  0  0  0  0  0
    1.8917   -0.6292    0.0000 C   0  0  0  0  0  0  0  0  0  0  0  0
   11.0542   -7.6417    0.0000 C   0  0  0  0  0  0  0  0  0  0  0  0
   -3.7875    3.1333    0.0000 C   0  0  0  0  0  0  0  0  0  0  0  0
    8.8042  -12.8125    0.0000 C   0  0  0  0  0  0  0  0  0  0  0  0
   10.0750  -12.0167    0.0000 C   0  0  0  0  0  0  0  0  0  0  0  0
   10.6542  -19.4125    0.0000 C   0  0  0  0  0  0  0  0  0  0  0  0
    0.1417    1.1708    0.0000 C   0  0  0  0  0  0  0  0  0  0  0  0
   10.7042  -17.9417    0.0000 N   0  0  0  0  0  0  0  0  0  0  0  0
   -3.9958    2.3208    0.0000 C   0  0  0  0  0  0  0  0  0  0  0  0
   11.1917   -3.2250    0.0000 C   0  0  0  0  0  0  0  0  0  0  0  0
    2.4875   -1.2375    0.0000 C   0  0  0  0  0  0  0  0  0  0  0  0
   -2.9958    3.3458    0.0000 C   0  0  0  0  0  0  0  0  0  0  0  0
   11.1917  -15.7500    0.0000 N   0  0  0  0  0  0  0  0  0  0  0  0
   11.1542  -17.2167    0.0000 C   0  0  0  0  0  0  0  0  0  0  0  0
    8.6250  -13.6250    0.0000 C   0  0  0  0  0  0  0  0  0  0  0  0
    7.2750    0.0750    0.0000 O   0  0  0  0  0  0  0  0  0  0  0  0
   11.1000  -18.6917    0.0000 C   0  0  0  0  0  0  0  0  0  0  0  0
    8.3792    0.2708    0.0000 O   0  0  0  0  0  0  0  0  0  0  0  0
    1.3792    3.0250    0.0000 C   0  0  0  0  0  0  0  0  0  0  0  0
   11.2167    1.1583    0.0000 O   0  0  0  0  0  0  0  0  0  0  0  0
   -1.0208    2.3625    0.0000 O   0  0  0  0  0  0  0  0  0  0  0  0
   10.1292  -10.5542    0.0000 O   0  0  0  0  0  0  0  0  0  0  0  0
    4.6625   -1.4000    0.0000 O   0  0  0  0  0  0  0  0  0  0  0  0
   10.2667   -6.1417    0.0000 O   0  0  0  0  0  0  0  0  0  0  0  0
   10.4250   -1.7250    0.0000 O   0  0  0  0  0  0  0  0  0  0  0  0
    3.1292    1.2250    0.0000 O   0  0  0  0  0  0  0  0  0  0  0  0
   12.2625   -8.4292    0.0000 O   0  0  0  0  0  0  0  0  0  0  0  0
   12.1042  -12.8292    0.0000 O   0  0  0  0  0  0  0  0  0  0  0  0
   -3.6333    0.8750    0.0000 O   0  0  0  0  0  0  0  0  0  0  0  0
    0.5125   -0.2500    0.0000 O   0  0  0  0  0  0  0  0  0  0  0  0
   12.4125   -4.0167    0.0000 O   0  0  0  0  0  0  0  0  0  0  0  0
   10.2167   -7.6042    0.0000 C   0  0  0  0  0  0  0  0  0  0  0  0
    9.9792  -14.9750    0.0000 O   0  0  0  0  0  0  0  0  0  0  0  0
    9.8292  -19.3750    0.0000 O   0  0  0  0  0  0  0  0  0  0  0  0
   -2.2500    0.5083    0.0000 C   0  0  0  0  0  0  0  0  0  0  0  0
   12.2167   -9.8917    0.0000 C   0  0  0  0  0  0  0  0  0  0  0  0
   12.0625  -14.3000    0.0000 C   0  0  0  0  0  0  0  0  0  0  0  0
   -2.7750    4.1667    0.0000 O   0  0  0  0  0  0  0  0  0  0  0  0
    2.2792   -2.0625    0.0000 O   0  0  0  0  0  0  0  0  0  0  0  0
   11.9667  -17.2500    0.0000 O   0  0  0  0  0  0  0  0  0  0  0  0
    2.1750    3.2458    0.0000 O   0  0  0  0  0  0  0  0  0  0  0  0
    0.3750    1.9833    0.0000 C   0  0  0  0  0  0  0  0  0  0  0  0
   10.7625  -16.4542    0.0000 C   0  0  0  0  0  0  0  0  0  0  0  0
    6.0542   -1.7750    0.0000 C   0  0  0  0  0  0  0  0  0  0  0  0
    7.5167   -2.1667    0.0000 C   0  0  0  0  0  0  0  0  0  0  0  0
    4.5167    0.8583    0.0000 C   0  0  0  0  0  0  0  0  0  0  0  0
    1.1625    2.2125    0.0000 C   0  0  0  0  0  0  0  0  0  0  0  0
    9.7875   -8.3375    0.0000 C   0  0  0  0  0  0  0  0  0  0  0  0
   -4.8083    2.0833    0.0000 N   0  0  0  0  0  0  0  0  0  0  0  0
   11.0417  -20.1542    0.0000 O   0  0  0  0  0  0  0  0  0  0  0  0
   10.3792   -3.2042    0.0000 C   0  0  0  0  0  0  0  0  0  0  0  0
    8.9167   -9.7667    0.0000 C   0  0  0  0  0  0  0  0  0  0  0  0
    3.2917   -1.0167    0.0000 O   0  0  0  0  0  0  0  0  0  0  0  0
   -2.3958    2.7458    0.0000 O   0  0  0  0  0  0  0  0  0  0  0  0
    0.7792    3.6333    0.0000 O   0  0  0  0  0  0  0  0  0  0  0  0
    9.1125   -3.9000    0.0000 S   0  0  0  0  0  0  0  0  0  0  0  0
   12.3667   -5.4917    0.0000 C   0  0  0  0  0  0  0  0  0  0  0  0
   12.5042   -1.0750    0.0000 C   0  0  0  0  0  0  0  0  0  0  0  0
    8.9500   -8.3042    0.0000 C   0  0  0  0  0  0  0  0  0  0  0  0
   10.1792   -9.0792    0.0000 C   0  0  0  0  0  0  0  0  0  0  0  0
   14.3417  -20.2667    0.0000 N   0  0  0  0  0  0  0  0  0  0  0  0
    8.5292   -9.0292    0.0000 C   0  0  0  0  0  0  0  0  0  0  0  0
    9.7417   -9.8042    0.0000 C   0  0  0  0  0  0  0  0  0  0  0  0
    8.8292   -1.9542    0.0000 C   0  0  0  0  0  0  0  0  0  0  0  0
   -1.6583   -0.0917    0.0000 O   0  0  0  0  0  0  0  0  0  0  0  0
   12.4417  -15.0417    0.0000 O   0  0  0  0  0  0  0  0  0  0  0  0
   12.6042  -10.6375    0.0000 O   0  0  0  0  0  0  0  0  0  0  0  0
    8.4792  -10.5000    0.0000 O   0  0  0  0  0  0  0  0  0  0  0  0
    9.5750    1.0625    0.0000 C   0  0  0  0  0  0  0  0  0  0  0  0
   12.9000   -1.8167    0.0000 O   0  0  0  0  0  0  0  0  0  0  0  0
   12.7500   -6.2292    0.0000 O   0  0  0  0  0  0  0  0  0  0  0  0
    8.2542   -2.5625    0.0000 C   0  0  0  0  0  0  0  0  0  0  0  0
    8.2292  -12.2042    0.0000 C   0  0  0  0  0  0  0  0  0  0  0  0
    9.9375   -3.9167    0.0000 C   0  0  0  0  0  0  0  0  0  0  0  0
   11.9125  -18.7125    0.0000 C   0  0  0  0  0  0  0  0  0  0  0  0
    7.8167  -13.8667    0.0000 C   0  0  0  0  0  0  0  0  0  0  0  0
   13.5292  -20.2500    0.0000 C   0  0  0  0  0  0  0  0  0  0  0  0
   -3.0458    0.2833    0.0000 C   0  0  0  0  0  0  0  0  0  0  0  0
   12.6542   -9.1750    0.0000 C   0  0  0  0  0  0  0  0  0  0  0  0
   12.5042  -13.5792    0.0000 C   0  0  0  0  0  0  0  0  0  0  0  0
    8.6667   -4.6042    0.0000 C   0  0  0  0  0  0  0  0  0  0  0  0
    6.6375   -2.3792    0.0000 C   0  0  0  0  0  0  0  0  0  0  0  0
    5.2542   -2.0042    0.0000 C   0  0  0  0  0  0  0  0  0  0  0  0
    3.9167    1.4333    0.0000 C   0  0  0  0  0  0  0  0  0  0  0  0
    5.3000    1.0625    0.0000 C   0  0  0  0  0  0  0  0  0  0  0  0
    9.9625    1.8208    0.0000 C   0  0  0  0  0  0  0  0  0  0  0  0
   12.3042  -19.4542    0.0000 C   0  0  0  0  0  0  0  0  0  0  0  0
   13.1292  -19.4917    0.0000 C   0  0  0  0  0  0  0  0  0  0  0  0
    7.4292  -12.4500    0.0000 C   0  0  0  0  0  0  0  0  0  0  0  0
    9.5167    2.4208    0.0000 C   0  0  0  0  0  0  0  0  0  0  0  0
    7.2292  -13.2750    0.0000 C   0  0  0  0  0  0  0  0  0  0  0  0
  2  1  1  0
 18  3  1  1
  4  8  1  0
  5 10  1  1
  6 40  1  0
  7  5  1  0
  8 35  1  0
  9 14  1  0
 10 21  1  0
  4 11  1  6
 12 19  1  0
 13 12  1  1
 17 14  1  6
 15 48  1  0
 38 16  1  1
 17  2  1  0
 18  1  1  0
 19 43  1  0
 20 16  1  0
 21 45  1  0
 22 32  1  0
 23 30  1  0
 24 11  1  0
 25  6  1  0
 26  3  1  0
 27 53  1  0
 28 36  1  0
 29 27  1  0
 30 25  1  1
 31  7  1  0
 32 29  1  1
 33 41  1  0
 34 13  1  0
 50 35  1  1
 39 36  1  6
 37 22  1  0
 38  9  1  0
 39 20  1  0
 40 26  1  0
 41 15  2  0
 42 23  1  0
 43 31  1  6
 39 44  1  0
 45 37  1  6
 52 46  1  0
 47 15  1  0
 43 48  1  0
 49 60  1  0
 50 28  1  0
 51 57  1  0
 52 24  1  0
 53 42  1  6
 54 44  1  0
 55 46  1  0
 56 34  1  0
 57 86  1  0
 58 47  2  0
 59  2  2  0
 60 51  1  1
 61  3  2  0
 62 90  1  0
 63  6  2  0
 64  8  2  0
 65  7  2  0
 66  9  2  0
 67 22  2  0
 68 23  2  0
 69 20  2  0
 70 21  2  0
 71 19  2  0
 72 24  2  0
 73 28  2  0
 74 27  2  0
 45 75  1  0
 76 34  2  0
 77 49  2  0
  4 78  1  0
  5 79  1  0
 13 80  1  0
 81 55  2  0
 82 54  2  0
 83 57  2  0
 84 62  2  0
 50 85  1  0
 86 56  1  0
 17 87  1  0
 88  1  1  0
 38 89  1  0
 90 85  1  0
 91 75  1  0
 52 92  1  1
 93 49  1  0
 53 94  1  0
 95106  1  0
 96 54  1  0
 97 55  1  0
 98 62  1  0
 99117  1  0
 32100  1  0
 30101  1  0
102 91  2  0
103 91  1  0
104120  1  0
105102  1  0
106103  2  0
 18107  1  0
 78108  1  6
 80109  1  1
 79110  1  1
111 95  1  0
112 40  1  0
113101  1  0
114100  1  0
115 88  1  0
116 47  1  0
117 94  1  0
 60118  1  0
119 58  1  0
120131  1  0
121 78  1  0
122 79  1  0
123 80  1  0
124 99  1  0
125 87  1  0
126 87  1  0
127 89  1  0
128 89  1  0
129112  1  0
130118  1  0
131130  1  0
132116  2  0
133129  1  0
134132  1  0
107115  1  0
105 95  2  0
 33 58  1  0
134119  2  0
M  END

> <chembl_id>
CHEMBL414772

> <chembl_pref_name>
None

$$$$

     RDKit          2D

 41 42  0  0  1  0  0  0  0  0999 V2000
    5.3125   -4.2792    0.0000 N   0  0  0  0  0  0  0  0  0  0  0  0
    4.6000   -3.8625    0.0000 C   0  0  0  0  0  0  0  0  0  0  0  0
    6.2625   -3.1417    0.0000 C   0  0  0  0  0  0  0  0  0  0  0  0
   11.7125   -0.9417    0.0000 N   0  0  0  0  0  0  0  0  0  0  0  0
    2.4375   -4.2542    0.0000 C   0  0  0  0  0  0  0  0  0  0  0  0
    3.1542   -3.8542    0.0000 N   0  0  0  0  0  0  0  0  0  0  0  0
    8.0167   -1.8292    0.0000 C   0  0  0  0  0  0  0  0  0  0  0  0
    3.8792   -4.2667    0.0000 C   0  0  0  0  0  0  0  0  0  0  0  0
    6.0750   -3.9542    0.0000 C   0  0  0  0  0  0  0  0  0  0  0  0
    7.0500   -2.8917    0.0000 N   0  0  0  0  0  0  0  0  0  0  0  0
    7.2292   -2.0875    0.0000 N   0  0  0  0  0  0  0  0  0  0  0  0
    1.7167   -3.8375    0.0000 C   0  0  0  0  0  0  0  0  0  0  0  0
    0.9917   -4.2417    0.0000 N   0  0  0  0  0  0  0  0  0  0  0  0
    8.4042   -1.0917    0.0000 O   0  0  0  0  0  0  0  0  0  0  0  0
   10.8875   -0.9792    0.0000 C   0  0  0  0  0  0  0  0  0  0  0  0
    0.8000   -5.0417    0.0000 C   0  0  0  0  0  0  0  0  0  0  0  0
   12.1625   -1.6375    0.0000 O   0  0  0  0  0  0  0  0  0  0  0  0
    4.6042   -3.0292    0.0000 O   0  0  0  0  0  0  0  0  0  0  0  0
   12.0917   -0.2042    0.0000 O   0  0  0  0  0  0  0  0  0  0  0  0
    5.6417   -2.5792    0.0000 O   0  0  0  0  0  0  0  0  0  0  0  0
    8.4667   -2.5292    0.0000 O   0  0  0  0  0  0  0  0  0  0  0  0
    2.4292   -5.0875    0.0000 O   0  0  0  0  0  0  0  0  0  0  0  0
    1.3917   -5.6167    0.0000 O   0  0  0  0  0  0  0  0  0  0  0  0
   10.4292   -0.2792    0.0000 C   0  0  0  0  0  0  0  0  0  0  0  0
   10.5042   -1.7167    0.0000 C   0  0  0  0  0  0  0  0  0  0  0  0
    3.8667   -5.1042    0.0000 C   0  0  0  0  0  0  0  0  0  0  0  0
    9.2292   -1.0542    0.0000 C   0  0  0  0  0  0  0  0  0  0  0  0
    5.4000   -5.1042    0.0000 C   0  0  0  0  0  0  0  0  0  0  0  0
    1.7292   -3.0042    0.0000 C   0  0  0  0  0  0  0  0  0  0  0  0
    9.6750   -1.7542    0.0000 C   0  0  0  0  0  0  0  0  0  0  0  0
    9.6042   -0.3167    0.0000 C   0  0  0  0  0  0  0  0  0  0  0  0
    6.6292   -4.5792    0.0000 C   0  0  0  0  0  0  0  0  0  0  0  0
    6.6167   -1.5250    0.0000 C   0  0  0  0  0  0  0  0  0  0  0  0
    6.2042   -5.2917    0.0000 C   0  0  0  0  0  0  0  0  0  0  0  0
    0.0042   -5.2792    0.0000 C   0  0  0  0  0  0  0  0  0  0  0  0
    4.5875   -5.5250    0.0000 C   0  0  0  0  0  0  0  0  0  0  0  0
    3.1417   -5.5125    0.0000 C   0  0  0  0  0  0  0  0  0  0  0  0
    1.0125   -2.5792    0.0000 C   0  0  0  0  0  0  0  0  0  0  0  0
    2.4542   -2.5917    0.0000 C   0  0  0  0  0  0  0  0  0  0  0  0
    6.7917   -0.7125    0.0000 C   0  0  0  0  0  0  0  0  0  0  0  0
    6.1792   -0.1542    0.0000 C   0  0  0  0  0  0  0  0  0  0  0  0
  2  1  1  0
  9  3  1  1
  4 15  1  0
  5  6  1  0
  8  6  1  6
  7 11  1  0
  8  2  1  0
  9  1  1  0
 10  3  1  0
 11 10  1  0
 12  5  1  0
 12 13  1  1
 14  7  1  0
 15 24  1  0
 16 13  1  0
 17  4  1  0
 18  2  2  0
 19  4  2  0
 20  3  2  0
 21  7  2  0
 22  5  2  0
 23 16  2  0
 24 31  2  0
 25 30  1  0
  8 26  1  0
 27 14  1  0
 28  1  1  0
 12 29  1  0
 30 27  2  0
 31 27  1  0
  9 32  1  0
 33 11  1  0
 34 28  1  0
 35 16  1  0
 36 26  1  0
 37 26  1  0
 38 29  1  0
 39 29  1  0
 40 33  1  0
 41 40  1  0
 32 34  1  0
 25 15  2  0
M  CHG  2   4   1  17  -1
M  END

> <chembl_id>
CHEMBL6520

> <chembl_pref_name>
None

$$$$

     RDKit          2D

 49 50  0  0  1  0  0  0  0  0999 V2000
    5.9417   -3.7250    0.0000 N   0  0  0  0  0  0  0  0  0  0  0  0
    5.2292   -3.3042    0.0000 C   0  0  0  0  0  0  0  0  0  0  0  0
    6.8917   -2.5792    0.0000 C   0  0  0  0  0  0  0  0  0  0  0  0
   12.4417   -1.1375    0.0000 N   0  0  0  0  0  0  0  0  0  0  0  0
    3.0667   -3.7000    0.0000 C   0  0  0  0  0  0  0  0  0  0  0  0
    3.7875   -3.2917    0.0000 N   0  0  0  0  0  0  0  0  0  0  0  0
    8.6500   -1.2667    0.0000 C   0  0  0  0  0  0  0  0  0  0  0  0
    1.6250   -3.6875    0.0000 N   0  0  0  0  0  0  0  0  0  0  0  0
    4.5042   -3.7125    0.0000 C   0  0  0  0  0  0  0  0  0  0  0  0
    6.7042   -3.3917    0.0000 C   0  0  0  0  0  0  0  0  0  0  0  0
    0.9042   -3.2667    0.0000 C   0  0  0  0  0  0  0  0  0  0  0  0
    7.6792   -2.3375    0.0000 N   0  0  0  0  0  0  0  0  0  0  0  0
    2.3500   -3.2792    0.0000 C   0  0  0  0  0  0  0  0  0  0  0  0
    7.8542   -1.5292    0.0000 N   0  0  0  0  0  0  0  0  0  0  0  0
    0.1875   -3.6750    0.0000 C   0  0  0  0  0  0  0  0  0  0  0  0
    0.1792   -4.5042    0.0000 C   0  0  0  0  0  0  0  0  0  0  0  0
   -0.5333   -3.2542    0.0000 N   0  0  0  0  0  0  0  0  0  0  0  0
    9.1667   -0.6250    0.0000 O   0  0  0  0  0  0  0  0  0  0  0  0
    0.8917   -4.9292    0.0000 C   0  0  0  0  0  0  0  0  0  0  0  0
   11.6250   -1.0125    0.0000 C   0  0  0  0  0  0  0  0  0  0  0  0
   -1.3458   -3.7417    0.0000 C   0  0  0  0  0  0  0  0  0  0  0  0
   12.7417   -1.9042    0.0000 O   0  0  0  0  0  0  0  0  0  0  0  0
    5.2375   -2.4750    0.0000 O   0  0  0  0  0  0  0  0  0  0  0  0
   12.9625   -0.4917    0.0000 O   0  0  0  0  0  0  0  0  0  0  0  0
    6.2750   -2.0167    0.0000 O   0  0  0  0  0  0  0  0  0  0  0  0
    8.9417   -2.0417    0.0000 O   0  0  0  0  0  0  0  0  0  0  0  0
    3.0542   -4.5292    0.0000 O   0  0  0  0  0  0  0  0  0  0  0  0
    0.9167   -2.4375    0.0000 O   0  0  0  0  0  0  0  0  0  0  0  0
    0.8875   -5.7625    0.0000 O   0  0  0  0  0  0  0  0  0  0  0  0
   -1.3333   -4.6917    0.0000 O   0  0  0  0  0  0  0  0  0  0  0  0
   11.1042   -1.6542    0.0000 C   0  0  0  0  0  0  0  0  0  0  0  0
   11.3250   -0.2375    0.0000 C   0  0  0  0  0  0  0  0  0  0  0  0
    4.5000   -4.5417    0.0000 C   0  0  0  0  0  0  0  0  0  0  0  0
    9.9875   -0.7500    0.0000 C   0  0  0  0  0  0  0  0  0  0  0  0
    6.0292   -4.5500    0.0000 C   0  0  0  0  0  0  0  0  0  0  0  0
    2.3542   -2.4500    0.0000 C   0  0  0  0  0  0  0  0  0  0  0  0
    1.6167   -4.5167    0.0000 O   0  0  0  0  0  0  0  0  0  0  0  0
   10.5042   -0.1042    0.0000 C   0  0  0  0  0  0  0  0  0  0  0  0
   10.2792   -1.5250    0.0000 C   0  0  0  0  0  0  0  0  0  0  0  0
    7.2542   -4.0167    0.0000 C   0  0  0  0  0  0  0  0  0  0  0  0
    7.2417   -0.9667    0.0000 C   0  0  0  0  0  0  0  0  0  0  0  0
    6.8292   -4.7292    0.0000 C   0  0  0  0  0  0  0  0  0  0  0  0
   -2.1833   -3.2750    0.0000 C   0  0  0  0  0  0  0  0  0  0  0  0
    5.2167   -4.9667    0.0000 C   0  0  0  0  0  0  0  0  0  0  0  0
    3.7750   -4.9542    0.0000 C   0  0  0  0  0  0  0  0  0  0  0  0
    1.6417   -2.0250    0.0000 C   0  0  0  0  0  0  0  0  0  0  0  0
    3.0792   -2.0375    0.0000 C   0  0  0  0  0  0  0  0  0  0  0  0
    7.4250   -0.1542    0.0000 C   0  0  0  0  0  0  0  0  0  0  0  0
    6.8125    0.4083    0.0000 C   0  0  0  0  0  0  0  0  0  0  0  0
  2  1  1  0
 10  3  1  1
  4 20  1  0
  5  6  1  0
  9  6  1  6
  7 14  1  0
 13  8  1  1
  9  2  1  0
 10  1  1  0
 11  8  1  0
 12  3  1  0
 13  5  1  0
 14 12  1  0
 15 11  1  0
 15 16  1  6
 17 15  1  0
 18  7  1  0
 19 16  1  0
 20 31  2  0
 21 17  1  0
 22  4  1  0
 23  2  2  0
 24  4  2  0
 25  3  2  0
 26  7  2  0
 27  5  2  0
 28 11  2  0
 29 19  2  0
 30 21  2  0
 31 39  1  0
 32 38  2  0
  9 33  1  0
 34 18  1  0
 35  1  1  0
 13 36  1  0
 37 19  1  0
 38 34  1  0
 39 34  2  0
 10 40  1  0
 41 14  1  0
 42 35  1  0
 43 21  1  0
 44 33  1  0
 45 33  1  0
 46 36  1  0
 47 36  1  0
 48 41  1  0
 49 48  1  0
 40 42  1  0
 32 20  1  0
M  CHG  2   4   1  22  -1
M  END

> <chembl_id>
CHEMBL6360

> <chembl_pref_name>
None

$$$$

     RDKit          2D

 32 35  0  0  0  0  0  0  0  0999 V2000
   -6.1042   -0.5792    0.0000 C   0  0  0  0  0  0  0  0  0  0  0  0
   -5.3958   -0.9917    0.0000 C   0  0  0  0  0  0  0  0  0  0  0  0
   -6.8167   -0.9875    0.0000 N   0  0  0  0  0  0  0  0  0  0  0  0
   -6.1042   -2.2250    0.0000 N   0  0  0  0  0  0  0  0  0  0  0  0
   -5.4083   -1.8167    0.0000 C   0  0  0  0  0  0  0  0  0  0  0  0
   -6.8167   -1.8042    0.0000 C   0  0  0  0  0  0  0  0  0  0  0  0
    0.3042    0.6833    0.0000 C   0  0  0  0  0  0  0  0  0  0  0  0
    1.0167    0.2708    0.0000 N   0  0  0  0  0  0  0  0  0  0  0  0
   -2.5458   -0.9792    0.0000 N   0  0  0  0  0  0  0  0  0  0  0  0
   -1.8458   -2.2417    0.0000 C   0  0  0  0  0  0  0  0  0  0  0  0
   -1.1458   -2.6917    0.0000 C   0  0  0  0  0  0  0  0  0  0  0  0
   -4.6875   -0.5750    0.0000 C   0  0  0  0  0  0  0  0  0  0  0  0
   -0.4083    0.2625    0.0000 C   0  0  0  0  0  0  0  0  0  0  0  0
   -1.8333   -0.5667    0.0000 C   0  0  0  0  0  0  0  0  0  0  0  0
   -6.0917    0.2458    0.0000 O   0  0  0  0  0  0  0  0  0  0  0  0
   -3.2583   -0.5667    0.0000 C   0  0  0  0  0  0  0  0  0  0  0  0
    0.3042    1.5083    0.0000 O   0  0  0  0  0  0  0  0  0  0  0  0
   -3.9708   -0.9875    0.0000 C   0  0  0  0  0  0  0  0  0  0  0  0
   -4.6875   -2.2292    0.0000 C   0  0  0  0  0  0  0  0  0  0  0  0
   -1.1250    0.6708    0.0000 C   0  0  0  0  0  0  0  0  0  0  0  0
   -0.4083   -0.5625    0.0000 C   0  0  0  0  0  0  0  0  0  0  0  0
   -1.8458    0.2583    0.0000 C   0  0  0  0  0  0  0  0  0  0  0  0
   -1.1208   -0.9792    0.0000 C   0  0  0  0  0  0  0  0  0  0  0  0
    1.7292    0.6833    0.0000 C   0  0  0  0  0  0  0  0  0  0  0  0
   -2.5458   -1.8042    0.0000 C   0  0  0  0  0  0  0  0  0  0  0  0
   -3.9708   -1.8167    0.0000 C   0  0  0  0  0  0  0  0  0  0  0  0
   -7.5292   -2.2167    0.0000 C   0  0  0  0  0  0  0  0  0  0  0  0
    2.4417    0.2750    0.0000 C   0  0  0  0  0  0  0  0  0  0  0  0
    1.7292    1.5083    0.0000 C   0  0  0  0  0  0  0  0  0  0  0  0
    2.4375    1.9250    0.0000 C   0  0  0  0  0  0  0  0  0  0  0  0
    3.1625    0.6875    0.0000 C   0  0  0  0  0  0  0  0  0  0  0  0
    3.1542    1.5208    0.0000 C   0  0  0  0  0  0  0  0  0  0  0  0
  2  1  1  0
  3  1  2  0
  4  6  2  0
  5  2  2  0
  6  3  1  0
  7 13  1  0
  8  7  1  0
  9 16  1  0
 10 25  1  0
 11 10  3  0
 12  2  1  0
 13 21  2  0
 14  9  1  0
 15  1  1  0
 16 18  1  0
 17  7  2  0
 18 12  2  0
 19  5  1  0
 20 22  2  0
 21 23  1  0
 22 14  1  0
 23 14  2  0
 24  8  1  0
 25  9  1  0
 26 18  1  0
 27  6  1  0
 28 24  2  0
 29 24  1  0
 30 29  2  0
 31 28  1  0
 32 30  1  0
  4  5  1  0
 26 19  2  0
 13 20  1  0
 32 31  2  0
M  END

> <chembl_id>
CHEMBL415105

> <chembl_pref_name>
None

$$$$

     RDKit          2D

 15 17  0  0  0  0  0  0  0  0999 V2000
    5.1417   -2.2500    0.0000 C   0  0  0  0  0  0  0  0  0  0  0  0
    3.7042   -2.2417    0.0000 C   0  0  0  0  0  0  0  0  0  0  0  0
    5.1417   -3.0750    0.0000 C   0  0  0  0  0  0  0  0  0  0  0  0
    4.4167   -3.4875    0.0000 N   0  0  0  0  0  0  0  0  0  0  0  0
    3.7042   -3.0667    0.0000 C   0  0  0  0  0  0  0  0  0  0  0  0
    5.9667   -2.2500    0.0000 O   0  0  0  0  0  0  0  0  0  0  0  0
    4.8917   -1.4625    0.0000 O   0  0  0  0  0  0  0  0  0  0  0  0
    2.9917   -1.8292    0.0000 C   0  0  0  0  0  0  0  0  0  0  0  0
    5.8542   -3.4875    0.0000 O   0  0  0  0  0  0  0  0  0  0  0  0
    2.9917   -3.4875    0.0000 C   0  0  0  0  0  0  0  0  0  0  0  0
    2.2792   -2.2500    0.0000 C   0  0  0  0  0  0  0  0  0  0  0  0
    2.2792   -3.0750    0.0000 C   0  0  0  0  0  0  0  0  0  0  0  0
    1.5667   -1.8375    0.0000 Cl  0  0  0  0  0  0  0  0  0  0  0  0
    5.5542   -0.9792    0.0000 C   0  0  0  0  0  0  0  0  0  0  0  0
    6.2250   -1.4625    0.0000 C   0  0  0  0  0  0  0  0  0  0  0  0
  2  1  1  0
  3  1  1  0
  4  3  1  0
  5  2  1  0
  6  1  1  0
  7  1  1  0
  8  2  2  0
  9  3  2  0
 10  5  2  0
 11  8  1  0
 12 11  2  0
 13 11  1  0
 14  7  1  0
 15  6  1  0
 14 15  1  0
  4  5  1  0
 12 10  1  0
M  END

> <chembl_id>
CHEMBL6545

> <chembl_pref_name>
None

$$$$

     RDKit          2D

 21 24  0  0  0  0  0  0  0  0999 V2000
    3.4792   -3.0167    0.0000 C   0  0  0  0  0  0  0  0  0  0  0  0
    2.7542   -4.2542    0.0000 N   0  0  0  0  0  0  0  0  0  0  0  0
    3.4792   -3.8417    0.0000 C   0  0  0  0  0  0  0  0  0  0  0  0
    2.0417   -3.0125    0.0000 C   0  0  0  0  0  0  0  0  0  0  0  0
    2.0417   -3.8375    0.0000 C   0  0  0  0  0  0  0  0  0  0  0  0
    2.7500   -5.0792    0.0000 C   0  0  0  0  0  0  0  0  0  0  0  0
    3.2292   -2.2292    0.0000 O   0  0  0  0  0  0  0  0  0  0  0  0
    4.3042   -3.0167    0.0000 O   0  0  0  0  0  0  0  0  0  0  0  0
    4.1917   -4.2542    0.0000 O   0  0  0  0  0  0  0  0  0  0  0  0
    1.3292   -2.6000    0.0000 C   0  0  0  0  0  0  0  0  0  0  0  0
    2.0292   -5.4875    0.0000 C   0  0  0  0  0  0  0  0  0  0  0  0
    1.3292   -4.2542    0.0000 C   0  0  0  0  0  0  0  0  0  0  0  0
    3.8917   -1.7500    0.0000 C   0  0  0  0  0  0  0  0  0  0  0  0
    4.5667   -2.2292    0.0000 C   0  0  0  0  0  0  0  0  0  0  0  0
    2.1792   -6.2917    0.0000 C   0  0  0  0  0  0  0  0  0  0  0  0
    1.2417   -5.2125    0.0000 C   0  0  0  0  0  0  0  0  0  0  0  0
    0.6167   -3.0167    0.0000 C   0  0  0  0  0  0  0  0  0  0  0  0
    0.6167   -3.8417    0.0000 C   0  0  0  0  0  0  0  0  0  0  0  0
    0.6292   -5.7500    0.0000 C   0  0  0  0  0  0  0  0  0  0  0  0
    1.5542   -6.8417    0.0000 C   0  0  0  0  0  0  0  0  0  0  0  0
    0.7667   -6.5625    0.0000 C   0  0  0  0  0  0  0  0  0  0  0  0
  2  3  1  0
  3  1  1  0
  4  1  1  0
  5  4  1  0
  6  2  1  0
  7  1  1  0
  8  1  1  0
  9  3  2  0
 10  4  2  0
 11  6  1  0
 12  5  2  0
 13  7  1  0
 14  8  1  0
 15 11  1  0
 16 11  2  0
 17 10  1  0
 18 17  2  0
 19 16  1  0
 20 15  2  0
 21 19  2  0
 13 14  1  0
  2  5  1  0
 18 12  1  0
 21 20  1  0
M  END

> <chembl_id>
CHEMBL6546

> <chembl_pref_name>
None

$$$$

     RDKit          2D

 15 17  0  0  0  0  0  0  0  0999 V2000
    4.8917   -2.0292    0.0000 C   0  0  0  0  0  0  0  0  0  0  0  0
    3.4542   -2.0250    0.0000 C   0  0  0  0  0  0  0  0  0  0  0  0
    4.8917   -2.8542    0.0000 C   0  0  0  0  0  0  0  0  0  0  0  0
    4.1667   -3.2667    0.0000 N   0  0  0  0  0  0  0  0  0  0  0  0
    3.4542   -2.8500    0.0000 C   0  0  0  0  0  0  0  0  0  0  0  0
    5.7167   -2.0292    0.0000 O   0  0  0  0  0  0  0  0  0  0  0  0
    4.6417   -1.2417    0.0000 O   0  0  0  0  0  0  0  0  0  0  0  0
    2.7417   -1.6125    0.0000 C   0  0  0  0  0  0  0  0  0  0  0  0
    5.6042   -3.2667    0.0000 O   0  0  0  0  0  0  0  0  0  0  0  0
    2.7417   -3.2667    0.0000 C   0  0  0  0  0  0  0  0  0  0  0  0
    2.0292   -2.0250    0.0000 C   0  0  0  0  0  0  0  0  0  0  0  0
    2.0292   -2.8542    0.0000 C   0  0  0  0  0  0  0  0  0  0  0  0
    5.9750   -1.2417    0.0000 C   0  0  0  0  0  0  0  0  0  0  0  0
    5.3042   -0.7542    0.0000 C   0  0  0  0  0  0  0  0  0  0  0  0
    1.3167   -1.6167    0.0000 C   0  0  0  0  0  0  0  0  0  0  0  0
  2  1  1  0
  3  1  1  0
  4  3  1  0
  5  2  1  0
  6  1  1  0
  7  1  1  0
  8  2  2  0
  9  3  2  0
 10  5  2  0
 11  8  1  0
 12 11  2  0
 13  6  1  0
 14  7  1  0
 15 11  1  0
 14 13  1  0
  4  5  1  0
 12 10  1  0
M  END

> <chembl_id>
CHEMBL6395

> <chembl_pref_name>
None

$$$$

     RDKit          2D

 24 26  0  0  0  0  0  0  0  0999 V2000
   -3.6144    1.4817    0.0000 O   0  0  0  0  0  0  0  0  0  0  0  0
   -4.4213    1.6532    0.0000 N   0  0  0  0  0  0  0  0  0  0  0  0
   -4.8338    0.9387    0.0000 C   0  0  0  0  0  0  0  0  0  0  0  0
   -5.6543    0.8525    0.0000 C   0  0  0  0  0  0  0  0  0  0  0  0
   -4.2818    0.3256    0.0000 C   0  0  0  0  0  0  0  0  0  0  0  0
   -3.5281    0.6612    0.0000 C   0  0  0  0  0  0  0  0  0  0  0  0
   -2.8137    0.2487    0.0000 C   0  0  0  0  0  0  0  0  0  0  0  0
   -2.0992    0.6612    0.0000 C   0  0  0  0  0  0  0  0  0  0  0  0
   -1.3847    0.2487    0.0000 C   0  0  0  0  0  0  0  0  0  0  0  0
   -0.6702    0.6612    0.0000 C   0  0  0  0  0  0  0  0  0  0  0  0
    0.0442    0.2487    0.0000 C   0  0  0  0  0  0  0  0  0  0  0  0
    0.7587    0.6612    0.0000 O   0  0  0  0  0  0  0  0  0  0  0  0
    1.4732    0.2487    0.0000 C   0  0  0  0  0  0  0  0  0  0  0  0
    2.1876    0.6612    0.0000 C   0  0  0  0  0  0  0  0  0  0  0  0
    2.9021    0.2487    0.0000 C   0  0  0  0  0  0  0  0  0  0  0  0
    2.9021   -0.5763    0.0000 C   0  0  0  0  0  0  0  0  0  0  0  0
    2.1876   -0.9888    0.0000 C   0  0  0  0  0  0  0  0  0  0  0  0
    1.4732   -0.5763    0.0000 C   0  0  0  0  0  0  0  0  0  0  0  0
    0.7587   -0.9888    0.0000 Cl  0  0  0  0  0  0  0  0  0  0  0  0
    3.6166   -0.9888    0.0000 C   0  0  0  0  0  0  0  0  0  0  0  0
    4.3703   -0.6533    0.0000 N   0  0  0  0  0  0  0  0  0  0  0  0
    4.9223   -1.2664    0.0000 C   0  0  0  0  0  0  0  0  0  0  0  0
    4.5098   -1.9808    0.0000 C   0  0  0  0  0  0  0  0  0  0  0  0
    3.7028   -1.8093    0.0000 O   0  0  0  0  0  0  0  0  0  0  0  0
  2  1  1  0
  6  1  1  0
  3  2  2  0
  3  4  1  0
  3  5  1  0
  5  6  2  0
  7  6  1  0
  7  8  1  0
  8  9  1  0
  9 10  1  0
 10 11  1  0
 11 12  1  0
 13 12  1  0
 13 14  2  0
 13 18  1  0
 14 15  1  0
 15 16  2  0
 16 17  1  0
 20 16  1  0
 17 18  2  0
 18 19  1  0
 20 21  2  0
 20 24  1  0
 22 21  1  0
 22 23  1  0
 23 24  1  0
M  END

> <chembl_id>
CHEMBL6444

> <chembl_pref_name>
None

$$$$

     RDKit          2D

 23 25  0  0  0  0  0  0  0  0999 V2000
   -3.6914    1.4372    0.0000 O   0  0  0  0  0  0  0  0  0  0  0  0
   -4.4984    1.6088    0.0000 N   0  0  0  0  0  0  0  0  0  0  0  0
   -4.9109    0.8943    0.0000 C   0  0  0  0  0  0  0  0  0  0  0  0
   -5.7313    0.8080    0.0000 C   0  0  0  0  0  0  0  0  0  0  0  0
   -4.3588    0.2812    0.0000 C   0  0  0  0  0  0  0  0  0  0  0  0
   -3.6051    0.6167    0.0000 C   0  0  0  0  0  0  0  0  0  0  0  0
   -2.8907    0.2042    0.0000 C   0  0  0  0  0  0  0  0  0  0  0  0
   -2.1762    0.6167    0.0000 C   0  0  0  0  0  0  0  0  0  0  0  0
   -1.4617    0.2042    0.0000 C   0  0  0  0  0  0  0  0  0  0  0  0
   -0.7473    0.6167    0.0000 C   0  0  0  0  0  0  0  0  0  0  0  0
   -0.0328    0.2042    0.0000 C   0  0  0  0  0  0  0  0  0  0  0  0
    0.6817    0.6167    0.0000 O   0  0  0  0  0  0  0  0  0  0  0  0
    1.3962    0.2042    0.0000 C   0  0  0  0  0  0  0  0  0  0  0  0
    2.1106    0.6167    0.0000 C   0  0  0  0  0  0  0  0  0  0  0  0
    2.8251    0.2042    0.0000 C   0  0  0  0  0  0  0  0  0  0  0  0
    2.8251   -0.6208    0.0000 C   0  0  0  0  0  0  0  0  0  0  0  0
    2.1106   -1.0333    0.0000 C   0  0  0  0  0  0  0  0  0  0  0  0
    1.3962   -0.6208    0.0000 C   0  0  0  0  0  0  0  0  0  0  0  0
    3.5396   -1.0333    0.0000 C   0  0  0  0  0  0  0  0  0  0  0  0
    4.2932   -0.6977    0.0000 N   0  0  0  0  0  0  0  0  0  0  0  0
    4.8453   -1.3108    0.0000 C   0  0  0  0  0  0  0  0  0  0  0  0
    4.4328   -2.0253    0.0000 C   0  0  0  0  0  0  0  0  0  0  0  0
    3.6258   -1.8537    0.0000 O   0  0  0  0  0  0  0  0  0  0  0  0
  2  1  1  0
  6  1  1  0
  3  2  2  0
  3  4  1  0
  3  5  1  0
  5  6  2  0
  7  6  1  0
  7  8  1  0
  8  9  1  0
  9 10  1  0
 10 11  1  0
 11 12  1  0
 13 12  1  0
 13 14  2  0
 13 18  1  0
 14 15  1  0
 15 16  2  0
 16 17  1  0
 19 16  1  0
 17 18  2  0
 19 20  2  0
 19 23  1  0
 21 20  1  0
 21 22  1  0
 22 23  1  0
M  END

> <chembl_id>
CHEMBL266800

> <chembl_pref_name>
None

$$$$

     RDKit          2D

 35 40  0  0  1  0  0  0  0  0999 V2000
    2.9917   -2.1417    0.0000 C   0  0  0  0  0  0  0  0  0  0  0  0
    4.4250   -1.3250    0.0000 C   0  0  0  0  0  0  0  0  0  0  0  0
    2.2250   -2.4500    0.0000 C   0  0  0  0  0  0  0  0  0  0  0  0
    1.9792   -3.2375    0.0000 C   0  0  0  0  0  0  0  0  0  0  0  0
    5.6917   -1.7292    0.0000 C   0  0  0  0  0  0  0  0  0  0  0  0
    3.7125   -2.5542    0.0000 C   0  0  0  0  0  0  0  0  0  0  0  0
    4.4250   -2.1500    0.0000 C   0  0  0  0  0  0  0  0  0  0  0  0
    1.5417   -1.9792    0.0000 C   0  0  0  0  0  0  0  0  0  0  0  0
    1.1625   -3.2500    0.0000 C   0  0  0  0  0  0  0  0  0  0  0  0
    5.2042   -1.0667    0.0000 O   0  0  0  0  0  0  0  0  0  0  0  0
    3.7042   -1.7292    0.0000 O   0  0  0  0  0  0  0  0  0  0  0  0
    5.2042   -2.4000    0.0000 O   0  0  0  0  0  0  0  0  0  0  0  0
    0.8875   -2.4792    0.0000 C   0  0  0  0  0  0  0  0  0  0  0  0
    2.9917   -1.3250    0.0000 C   0  0  0  0  0  0  0  0  0  0  0  0
    3.7125   -0.9042    0.0000 C   0  0  0  0  0  0  0  0  0  0  0  0
    3.8292   -3.3792    0.0000 C   0  0  0  0  0  0  0  0  0  0  0  0
    4.6292   -0.5167    0.0000 C   0  0  0  0  0  0  0  0  0  0  0  0
    3.2667   -3.9792    0.0000 C   0  0  0  0  0  0  0  0  0  0  0  0
    2.4542   -3.9125    0.0000 C   0  0  0  0  0  0  0  0  0  0  0  0
    6.5167   -1.7167    0.0000 C   0  0  0  0  0  0  0  0  0  0  0  0
    0.6792   -3.9292    0.0000 O   0  0  0  0  0  0  0  0  0  0  0  0
    1.5792   -3.9542    0.0000 O   0  0  0  0  0  0  0  0  0  0  0  0
    5.4292   -0.3000    0.0000 C   0  0  0  0  0  0  0  0  0  0  0  0
    0.0875   -2.2500    0.0000 C   0  0  0  0  0  0  0  0  0  0  0  0
    6.9250   -1.0042    0.0000 C   0  0  0  0  0  0  0  0  0  0  0  0
    2.2750   -0.9000    0.0000 C   0  0  0  0  0  0  0  0  0  0  0  0
    3.5500   -4.7625    0.0000 C   0  0  0  0  0  0  0  0  0  0  0  0
    3.0167   -5.3917    0.0000 O   0  0  0  0  0  0  0  0  0  0  0  0
    4.0417    0.0625    0.0000 C   0  0  0  0  0  0  0  0  0  0  0  0
    6.5042   -0.3000    0.0000 C   0  0  0  0  0  0  0  0  0  0  0  0
    7.7417   -1.0042    0.0000 C   0  0  0  0  0  0  0  0  0  0  0  0
    8.1542   -0.2875    0.0000 C   0  0  0  0  0  0  0  0  0  0  0  0
    6.9042    0.4208    0.0000 C   0  0  0  0  0  0  0  0  0  0  0  0
    7.7375    0.4250    0.0000 C   0  0  0  0  0  0  0  0  0  0  0  0
    4.5276   -3.1447    0.0000 H   0  0  0  0  0  0  0  0  0  0  0  0
  2 15  1  0
  3  1  1  0
  4  3  1  0
  5 11  1  0
  6  1  1  0
  7  6  1  0
  8  3  1  0
  9  4  1  0
 10  5  1  0
  1 11  1  6
 12  5  1  0
 13  8  2  0
 14  1  1  0
 15 14  1  0
 16  6  1  0
  2 17  1  1
 18 16  2  0
 19  4  1  0
 20  5  1  0
 21  9  2  0
  4 22  1  1
 23 17  2  0
 24 13  1  0
 25 20  1  0
 14 26  1  6
 27 18  1  0
 28 27  1  0
 29 17  1  0
 30 25  1  0
 31 25  2  0
 32 31  1  0
 33 30  2  0
 34 32  2  0
  2  7  1  0
  7 12  1  0
  2 10  1  0
  9 13  1  0
 18 19  1  0
 34 33  1  0
  7 35  1  1
M  END

> <chembl_id>
CHEMBL269304

> <chembl_pref_name>
None

$$$$

     RDKit          2D

 31 33  0  0  0  0  0  0  0  0999 V2000
   -8.2339    2.1049    0.0000 O   0  0  0  0  0  0  0  0  0  0  0  0
   -7.4135    2.1912    0.0000 C   0  0  0  0  0  0  0  0  0  0  0  0
   -6.9285    1.5237    0.0000 C   0  0  0  0  0  0  0  0  0  0  0  0
   -6.1080    1.6100    0.0000 O   0  0  0  0  0  0  0  0  0  0  0  0
   -5.6231    0.9425    0.0000 C   0  0  0  0  0  0  0  0  0  0  0  0
   -4.8026    1.0288    0.0000 O   0  0  0  0  0  0  0  0  0  0  0  0
   -2.2778    0.9905    0.0000 O   0  0  0  0  0  0  0  0  0  0  0  0
   -3.0847    1.1620    0.0000 N   0  0  0  0  0  0  0  0  0  0  0  0
   -3.4972    0.4476    0.0000 C   0  0  0  0  0  0  0  0  0  0  0  0
   -4.3177    0.3613    0.0000 C   0  0  0  0  0  0  0  0  0  0  0  0
   -2.9452   -0.1655    0.0000 C   0  0  0  0  0  0  0  0  0  0  0  0
   -2.1915    0.1700    0.0000 C   0  0  0  0  0  0  0  0  0  0  0  0
   -1.4771   -0.2425    0.0000 C   0  0  0  0  0  0  0  0  0  0  0  0
   -0.7626    0.1700    0.0000 C   0  0  0  0  0  0  0  0  0  0  0  0
   -0.0481   -0.2425    0.0000 C   0  0  0  0  0  0  0  0  0  0  0  0
    0.6663    0.1700    0.0000 C   0  0  0  0  0  0  0  0  0  0  0  0
    1.3808   -0.2425    0.0000 C   0  0  0  0  0  0  0  0  0  0  0  0
    2.0953    0.1700    0.0000 O   0  0  0  0  0  0  0  0  0  0  0  0
    2.8098   -0.2425    0.0000 C   0  0  0  0  0  0  0  0  0  0  0  0
    3.5242    0.1700    0.0000 C   0  0  0  0  0  0  0  0  0  0  0  0
    4.2387   -0.2425    0.0000 C   0  0  0  0  0  0  0  0  0  0  0  0
    4.2387   -1.0675    0.0000 C   0  0  0  0  0  0  0  0  0  0  0  0
    3.5242   -1.4800    0.0000 C   0  0  0  0  0  0  0  0  0  0  0  0
    2.8098   -1.0675    0.0000 C   0  0  0  0  0  0  0  0  0  0  0  0
    2.0953   -1.4800    0.0000 Cl  0  0  0  0  0  0  0  0  0  0  0  0
    3.5242    0.9950    0.0000 Cl  0  0  0  0  0  0  0  0  0  0  0  0
    4.9532   -1.4800    0.0000 C   0  0  0  0  0  0  0  0  0  0  0  0
    5.7069   -1.1444    0.0000 N   0  0  0  0  0  0  0  0  0  0  0  0
    6.2589   -1.7575    0.0000 C   0  0  0  0  0  0  0  0  0  0  0  0
    5.8464   -2.4720    0.0000 C   0  0  0  0  0  0  0  0  0  0  0  0
    5.0394   -2.3004    0.0000 O   0  0  0  0  0  0  0  0  0  0  0  0
  2  1  1  0
  2  3  1  0
  3  4  1  0
  5  4  1  0
  5  6  1  0
 10  6  1  0
  8  7  1  0
 12  7  1  0
  9  8  2  0
  9 10  1  0
  9 11  1  0
 11 12  2  0
 13 12  1  0
 13 14  1  0
 14 15  1  0
 15 16  1  0
 16 17  1  0
 17 18  1  0
 19 18  1  0
 19 20  2  0
 19 24  1  0
 20 21  1  0
 20 26  1  0
 21 22  2  0
 22 23  1  0
 27 22  1  0
 23 24  2  0
 24 25  1  0
 27 28  2  0
 27 31  1  0
 29 28  1  0
 29 30  1  0
 30 31  1  0
M  END

> <chembl_id>
CHEMBL6448

> <chembl_pref_name>
None

$$$$

     RDKit          2D

 36 39  0  0  0  0  0  0  0  0999 V2000
   11.9500   -6.7292    0.0000 N   0  0  0  0  0  0  0  0  0  0  0  0
    2.1417   -7.5500    0.0000 C   0  0  0  0  0  0  0  0  0  0  0  0
   11.9417   -7.4542    0.0000 C   0  0  0  0  0  0  0  0  0  0  0  0
   10.7042   -6.7292    0.0000 C   0  0  0  0  0  0  0  0  0  0  0  0
   11.3292   -6.3667    0.0000 C   0  0  0  0  0  0  0  0  0  0  0  0
    2.1292   -8.3750    0.0000 C   0  0  0  0  0  0  0  0  0  0  0  0
   10.7042   -7.4500    0.0000 S   0  0  0  0  0  0  0  0  0  0  0  0
    1.4250   -7.1375    0.0000 C   0  0  0  0  0  0  0  0  0  0  0  0
    0.7125   -8.3792    0.0000 C   0  0  0  0  0  0  0  0  0  0  0  0
    1.4250   -8.7917    0.0000 C   0  0  0  0  0  0  0  0  0  0  0  0
    0.7125   -7.5500    0.0000 C   0  0  0  0  0  0  0  0  0  0  0  0
    2.8542   -7.1292    0.0000 O   0  0  0  0  0  0  0  0  0  0  0  0
    9.9917   -6.3167    0.0000 C   0  0  0  0  0  0  0  0  0  0  0  0
    3.5667   -7.5500    0.0000 C   0  0  0  0  0  0  0  0  0  0  0  0
    2.8542   -8.7917    0.0000 C   0  0  0  0  0  0  0  0  0  0  0  0
   12.5292   -8.0417    0.0000 O   0  0  0  0  0  0  0  0  0  0  0  0
   11.3250   -5.6417    0.0000 O   0  0  0  0  0  0  0  0  0  0  0  0
    4.2792   -7.9625    0.0000 C   0  0  0  0  0  0  0  0  0  0  0  0
    9.2792   -6.7292    0.0000 C   0  0  0  0  0  0  0  0  0  0  0  0
    3.5667   -8.3792    0.0000 C   0  0  0  0  0  0  0  0  0  0  0  0
   -0.0083   -8.7875    0.0000 O   0  0  0  0  0  0  0  0  0  0  0  0
    4.9917   -7.5500    0.0000 N   0  0  0  0  0  0  0  0  0  0  0  0
    7.8542   -7.5500    0.0000 C   0  0  0  0  0  0  0  0  0  0  0  0
    9.2792   -7.5542    0.0000 C   0  0  0  0  0  0  0  0  0  0  0  0
    8.5625   -6.3167    0.0000 C   0  0  0  0  0  0  0  0  0  0  0  0
    1.4167   -6.3125    0.0000 C   0  0  0  0  0  0  0  0  0  0  0  0
    1.4292   -9.6167    0.0000 C   0  0  0  0  0  0  0  0  0  0  0  0
    0.0000   -7.1417    0.0000 C   0  0  0  0  0  0  0  0  0  0  0  0
    8.5667   -7.9667    0.0000 C   0  0  0  0  0  0  0  0  0  0  0  0
    7.8500   -6.7292    0.0000 C   0  0  0  0  0  0  0  0  0  0  0  0
    7.1375   -7.9625    0.0000 O   0  0  0  0  0  0  0  0  0  0  0  0
    6.4250   -7.5500    0.0000 C   0  0  0  0  0  0  0  0  0  0  0  0
    4.2875   -7.1417    0.0000 C   0  0  0  0  0  0  0  0  0  0  0  0
    5.7042   -7.9625    0.0000 C   0  0  0  0  0  0  0  0  0  0  0  0
    4.9917   -6.7250    0.0000 C   0  0  0  0  0  0  0  0  0  0  0  0
    5.7125   -6.3125    0.0000 C   0  0  0  0  0  0  0  0  0  0  0  0
  2 12  1  0
  3  1  1  0
  4  5  1  0
  5  1  1  0
  6 15  1  0
  7  3  1  0
  8  2  2  0
  9 10  1  0
 10  6  2  0
 11  8  1  0
 12 14  1  0
 13  4  2  0
 14 18  1  0
 15 20  1  0
 16  3  2  0
 17  5  2  0
 18 22  1  0
 19 13  1  0
 20 14  1  0
 21  9  1  0
 22 34  1  0
 23 30  1  0
 24 19  2  0
 25 19  1  0
 26  8  1  0
 27 10  1  0
 28 11  1  0
 29 24  1  0
 30 25  2  0
 31 23  1  0
 32 31  1  0
 33 14  1  0
 34 32  1  0
 35 22  1  0
 36 35  1  0
  7  4  1  0
 29 23  2  0
  6  2  1  0
  9 11  2  0
M  END

> <chembl_id>
CHEMBL6571

> <chembl_pref_name>
None

$$$$

     RDKit          2D

 23 26  0  0  0  0  0  0  0  0999 V2000
    1.4292   -5.1042    0.0000 N   0  0  0  0  0  0  0  0  0  0  0  0
    2.1417   -3.8667    0.0000 N   0  0  0  0  0  0  0  0  0  0  0  0
    2.8625   -5.1042    0.0000 C   0  0  0  0  0  0  0  0  0  0  0  0
    2.8625   -4.2792    0.0000 C   0  0  0  0  0  0  0  0  0  0  0  0
    2.1417   -5.5167    0.0000 C   0  0  0  0  0  0  0  0  0  0  0  0
    1.4292   -4.2792    0.0000 C   0  0  0  0  0  0  0  0  0  0  0  0
    3.5792   -5.5167    0.0000 N   0  0  0  0  0  0  0  0  0  0  0  0
    3.5667   -3.8625    0.0000 N   0  0  0  0  0  0  0  0  0  0  0  0
    4.2917   -5.1000    0.0000 C   0  0  0  0  0  0  0  0  0  0  0  0
    5.0042   -5.5042    0.0000 S   0  0  0  0  0  0  0  0  0  0  0  0
    5.7167   -5.0917    0.0000 C   0  0  0  0  0  0  0  0  0  0  0  0
    5.7125   -4.2792    0.0000 C   0  0  0  0  0  0  0  0  0  0  0  0
    4.2875   -4.2667    0.0000 C   0  0  0  0  0  0  0  0  0  0  0  0
    2.1500   -6.3417    0.0000 N   0  0  0  0  0  0  0  0  0  0  0  0
    0.7167   -3.8667    0.0000 N   0  0  0  0  0  0  0  0  0  0  0  0
    6.4167   -3.8542    0.0000 C   0  0  0  0  0  0  0  0  0  0  0  0
    6.4292   -5.5042    0.0000 C   0  0  0  0  0  0  0  0  0  0  0  0
    7.1417   -5.0917    0.0000 C   0  0  0  0  0  0  0  0  0  0  0  0
    4.9917   -3.8792    0.0000 C   0  0  0  0  0  0  0  0  0  0  0  0
    7.1417   -4.2667    0.0000 C   0  0  0  0  0  0  0  0  0  0  0  0
    6.4042   -3.0292    0.0000 C   0  0  0  0  0  0  0  0  0  0  0  0
    4.9792   -3.0542    0.0000 C   0  0  0  0  0  0  0  0  0  0  0  0
    5.6875   -2.6292    0.0000 C   0  0  0  0  0  0  0  0  0  0  0  0
  2  6  1  0
  3  5  2  0
  4  2  2  0
  5  1  1  0
  6  1  2  0
  7  3  1  0
  8  4  1  0
  9  7  2  0
 10  9  1  0
 11 10  1  0
 12 11  1  0
 13  8  2  0
 14  5  1  0
 15  6  1  0
 16 12  2  0
 17 11  2  0
 18 17  1  0
 19 12  1  0
 20 18  2  0
 21 16  1  0
 22 19  2  0
 23 22  1  0
  3  4  1  0
  9 13  1  0
 16 20  1  0
 21 23  2  0
M  END

> <chembl_id>
CHEMBL268388

> <chembl_pref_name>
None

$$$$

     RDKit          2D

 31 34  0  0  0  0  0  0  0  0999 V2000
   -2.2208   -9.0792    0.0000 C   0  0  0  0  0  0  0  0  0  0  0  0
   -2.2250   -9.9042    0.0000 C   0  0  0  0  0  0  0  0  0  0  0  0
    5.4417   -8.6792    0.0000 N   0  0  0  0  0  0  0  0  0  0  0  0
   -1.5083   -8.6667    0.0000 O   0  0  0  0  0  0  0  0  0  0  0  0
    5.4417   -9.4000    0.0000 C   0  0  0  0  0  0  0  0  0  0  0  0
   -2.9375  -10.3250    0.0000 C   0  0  0  0  0  0  0  0  0  0  0  0
   -0.7958   -9.9125    0.0000 C   0  0  0  0  0  0  0  0  0  0  0  0
    4.8167   -8.3125    0.0000 C   0  0  0  0  0  0  0  0  0  0  0  0
   -0.7958   -9.0792    0.0000 C   0  0  0  0  0  0  0  0  0  0  0  0
   -3.6500   -9.9125    0.0000 C   0  0  0  0  0  0  0  0  0  0  0  0
   -2.9375   -8.6667    0.0000 C   0  0  0  0  0  0  0  0  0  0  0  0
    4.1917   -9.3917    0.0000 S   0  0  0  0  0  0  0  0  0  0  0  0
   -3.6500   -9.0792    0.0000 C   0  0  0  0  0  0  0  0  0  0  0  0
    4.2000   -8.6667    0.0000 C   0  0  0  0  0  0  0  0  0  0  0  0
   -0.0833  -10.3250    0.0000 C   0  0  0  0  0  0  0  0  0  0  0  0
    6.0167   -9.9792    0.0000 O   0  0  0  0  0  0  0  0  0  0  0  0
    4.8167   -7.5875    0.0000 O   0  0  0  0  0  0  0  0  0  0  0  0
    3.4875   -8.2542    0.0000 C   0  0  0  0  0  0  0  0  0  0  0  0
    0.6292   -9.9042    0.0000 O   0  0  0  0  0  0  0  0  0  0  0  0
   -4.3708  -10.3167    0.0000 O   0  0  0  0  0  0  0  0  0  0  0  0
    2.7667   -8.6750    0.0000 C   0  0  0  0  0  0  0  0  0  0  0  0
    1.3417   -9.4917    0.0000 C   0  0  0  0  0  0  0  0  0  0  0  0
   -2.9333  -11.1500    0.0000 C   0  0  0  0  0  0  0  0  0  0  0  0
   -0.0833   -9.4917    0.0000 C   0  0  0  0  0  0  0  0  0  0  0  0
   -0.0750   -8.6750    0.0000 C   0  0  0  0  0  0  0  0  0  0  0  0
    2.0542   -8.2625    0.0000 C   0  0  0  0  0  0  0  0  0  0  0  0
    2.7667   -9.5000    0.0000 C   0  0  0  0  0  0  0  0  0  0  0  0
   -2.9458   -7.8417    0.0000 C   0  0  0  0  0  0  0  0  0  0  0  0
    1.3417   -8.6750    0.0000 C   0  0  0  0  0  0  0  0  0  0  0  0
    2.0542   -9.9125    0.0000 C   0  0  0  0  0  0  0  0  0  0  0  0
   -4.3625   -8.6750    0.0000 C   0  0  0  0  0  0  0  0  0  0  0  0
  2  1  1  0
  3  8  1  0
  4  1  1  0
  5 12  1  0
  6  2  2  0
  7  2  1  0
  8 14  1  0
  9  4  1  0
 10 13  2  0
 11  1  2  0
 12 14  1  0
 13 11  1  0
 14 18  1  0
 15  7  1  0
 16  5  2  0
 17  8  2  0
 18 21  1  0
 19 15  1  0
 20 10  1  0
 21 27  2  0
 22 19  1  0
 23  6  1  0
 24  9  1  0
 25  9  1  0
 26 29  2  0
 27 30  1  0
 28 11  1  0
 29 22  1  0
 30 22  2  0
 31 13  1  0
  9  7  1  0
 10  6  1  0
 21 26  1  0
  3  5  1  0
M  END

> <chembl_id>
CHEMBL269572

> <chembl_pref_name>
None

$$$$

     RDKit          2D

 31 34  0  0  0  0  0  0  0  0999 V2000
   -3.5931    0.0959    0.0000 C   0  0  0  0  0  0  0  0  0  0  0  0
   -3.5943   -0.7315    0.0000 C   0  0  0  0  0  0  0  0  0  0  0  0
   -2.8794   -1.1444    0.0000 C   0  0  0  0  0  0  0  0  0  0  0  0
   -2.8812    0.5086    0.0000 C   0  0  0  0  0  0  0  0  0  0  0  0
   -2.8837    1.3336    0.0000 C   0  0  0  0  0  0  0  0  0  0  0  0
   -4.3077    0.5082    0.0000 C   0  0  0  0  0  0  0  0  0  0  0  0
   -4.3091   -1.1434    0.0000 O   0  0  0  0  0  0  0  0  0  0  0  0
   -2.8796   -1.9694    0.0000 C   0  0  0  0  0  0  0  0  0  0  0  0
   -2.1659    0.0995    0.0000 C   0  0  0  0  0  0  0  0  0  0  0  0
   -2.1671   -0.7336    0.0000 C   0  0  0  0  0  0  0  0  0  0  0  0
   -1.4502   -1.1488    0.0000 C   0  0  0  0  0  0  0  0  0  0  0  0
   -0.7275   -0.7356    0.0000 C   0  0  0  0  0  0  0  0  0  0  0  0
   -0.7263    0.0974    0.0000 C   0  0  0  0  0  0  0  0  0  0  0  0
   -1.4478    0.5173    0.0000 O   0  0  0  0  0  0  0  0  0  0  0  0
   -0.0108    0.5082    0.0000 C   0  0  0  0  0  0  0  0  0  0  0  0
    0.7026    0.0939    0.0000 O   0  0  0  0  0  0  0  0  0  0  0  0
    1.4181    0.5047    0.0000 C   0  0  0  0  0  0  0  0  0  0  0  0
    2.1272    0.0881    0.0000 C   0  0  0  0  0  0  0  0  0  0  0  0
    2.8422    0.4981    0.0000 C   0  0  0  0  0  0  0  0  0  0  0  0
    2.8447    1.3240    0.0000 C   0  0  0  0  0  0  0  0  0  0  0  0
    2.1262    1.7381    0.0000 C   0  0  0  0  0  0  0  0  0  0  0  0
    1.4142    1.3257    0.0000 C   0  0  0  0  0  0  0  0  0  0  0  0
    3.5596    1.7357    0.0000 C   0  0  0  0  0  0  0  0  0  0  0  0
    4.2270    1.2509    0.0000 C   0  0  0  0  0  0  0  0  0  0  0  0
    4.2255    0.4290    0.0000 S   0  0  0  0  0  0  0  0  0  0  0  0
    5.0102    0.1743    0.0000 C   0  0  0  0  0  0  0  0  0  0  0  0
    5.4950    0.8419    0.0000 N   0  0  0  0  0  0  0  0  0  0  0  0
    5.0098    1.5091    0.0000 C   0  0  0  0  0  0  0  0  0  0  0  0
    5.2654   -0.6103    0.0000 O   0  0  0  0  0  0  0  0  0  0  0  0
    5.2628    2.2944    0.0000 O   0  0  0  0  0  0  0  0  0  0  0  0
   -0.0167   -0.3125    0.0000 C   0  0  0  0  0  0  0  0  0  0  0  0
 13 15  1  0
  2  7  1  0
 15 16  1  0
  1  2  2  0
 16 17  1  0
  3  8  1  0
 17 18  2  0
  9 10  1  0
 18 19  1  0
  9  4  2  0
 19 20  2  0
  4  1  1  0
 20 21  1  0
 21 22  2  0
 22 17  1  0
  4  5  1  0
 20 23  1  0
  2  3  1  0
 23 24  1  0
 24 25  1  0
  1  6  1  0
  9 14  1  0
 10 11  1  0
 11 12  1  0
 25 26  1  0
 26 27  1  0
 27 28  1  0
 28 24  1  0
 12 13  1  0
 26 29  2  0
 13 14  1  0
 28 30  2  0
  3 10  2  0
 13 31  1  0
M  END

> <chembl_id>
CHEMBL408

> <chembl_pref_name>
TROGLITAZONE

$$$$

     RDKit          2D

 69 69  0  0  1  0  0  0  0  0999 V2000
   10.1167   -3.0000    0.0000 N   0  0  0  0  0  0  0  0  0  0  0  0
    9.4167   -2.5667    0.0000 C   0  0  0  0  0  0  0  0  0  0  0  0
   11.0792   -1.8792    0.0000 C   0  0  0  0  0  0  0  0  0  0  0  0
   12.8542   -0.6167    0.0000 C   0  0  0  0  0  0  0  0  0  0  0  0
    0.0917   -2.7292    0.0000 C   0  0  0  0  0  0  0  0  0  0  0  0
    0.8292   -2.3375    0.0000 C   0  0  0  0  0  0  0  0  0  0  0  0
   13.4542   -1.1792    0.0000 O   0  0  0  0  0  0  0  0  0  0  0  0
    7.2542   -2.9250    0.0000 C   0  0  0  0  0  0  0  0  0  0  0  0
   -0.6083   -2.2917    0.0000 N   0  0  0  0  0  0  0  0  0  0  0  0
    7.9792   -2.5292    0.0000 N   0  0  0  0  0  0  0  0  0  0  0  0
    5.8250   -2.8792    0.0000 N   0  0  0  0  0  0  0  0  0  0  0  0
    8.6875   -2.9667    0.0000 C   0  0  0  0  0  0  0  0  0  0  0  0
   14.8375   -1.5167    0.0000 C   0  0  0  0  0  0  0  0  0  0  0  0
   10.8792   -2.6875    0.0000 C   0  0  0  0  0  0  0  0  0  0  0  0
   -1.3333   -2.6875    0.0000 C   0  0  0  0  0  0  0  0  0  0  0  0
    5.1167   -2.4500    0.0000 C   0  0  0  0  0  0  0  0  0  0  0  0
   11.8667   -1.6500    0.0000 N   0  0  0  0  0  0  0  0  0  0  0  0
    2.9625   -2.8042    0.0000 C   0  0  0  0  0  0  0  0  0  0  0  0
   14.2417   -0.9500    0.0000 C   0  0  0  0  0  0  0  0  0  0  0  0
    1.5292   -2.7667    0.0000 N   0  0  0  0  0  0  0  0  0  0  0  0
    3.6875   -2.4125    0.0000 N   0  0  0  0  0  0  0  0  0  0  0  0
    6.5542   -2.4917    0.0000 C   0  0  0  0  0  0  0  0  0  0  0  0
    4.3917   -2.8417    0.0000 C   0  0  0  0  0  0  0  0  0  0  0  0
   12.0625   -0.8500    0.0000 N   0  0  0  0  0  0  0  0  0  0  0  0
   -2.0375   -2.2542    0.0000 C   0  0  0  0  0  0  0  0  0  0  0  0
    4.3667   -3.6667    0.0000 C   0  0  0  0  0  0  0  0  0  0  0  0
   -2.0208   -1.4292    0.0000 C   0  0  0  0  0  0  0  0  0  0  0  0
   -2.7708   -2.6500    0.0000 N   0  0  0  0  0  0  0  0  0  0  0  0
    2.2542   -2.3750    0.0000 C   0  0  0  0  0  0  0  0  0  0  0  0
   -1.2958   -1.0292    0.0000 C   0  0  0  0  0  0  0  0  0  0  0  0
    5.0792   -4.1042    0.0000 C   0  0  0  0  0  0  0  0  0  0  0  0
   -2.7875   -3.4750    0.0000 C   0  0  0  0  0  0  0  0  0  0  0  0
    9.4375   -1.7417    0.0000 O   0  0  0  0  0  0  0  0  0  0  0  0
   10.4792   -1.3125    0.0000 O   0  0  0  0  0  0  0  0  0  0  0  0
    3.0292   -0.3250    0.0000 C   0  0  0  0  0  0  0  0  0  0  0  0
   13.0500    0.1875    0.0000 O   0  0  0  0  0  0  0  0  0  0  0  0
    0.8500   -1.5042    0.0000 O   0  0  0  0  0  0  0  0  0  0  0  0
    7.2292   -3.7500    0.0000 O   0  0  0  0  0  0  0  0  0  0  0  0
   -1.3583   -3.5167    0.0000 O   0  0  0  0  0  0  0  0  0  0  0  0
    5.1417   -1.6250    0.0000 O   0  0  0  0  0  0  0  0  0  0  0  0
    2.9375   -3.6292    0.0000 O   0  0  0  0  0  0  0  0  0  0  0  0
    0.0750   -3.5542    0.0000 C   0  0  0  0  0  0  0  0  0  0  0  0
    5.0542   -4.9292    0.0000 O   0  0  0  0  0  0  0  0  0  0  0  0
   -1.2708   -0.2042    0.0000 O   0  0  0  0  0  0  0  0  0  0  0  0
   -3.5125   -3.8667    0.0000 O   0  0  0  0  0  0  0  0  0  0  0  0
    3.7542    0.0708    0.0000 O   0  0  0  0  0  0  0  0  0  0  0  0
   15.6292   -1.2917    0.0000 Cl  0  0  0  0  0  0  0  0  0  0  0  0
   14.1292   -1.9417    0.0000 Cl  0  0  0  0  0  0  0  0  0  0  0  0
   14.6417   -2.3167    0.0000 Cl  0  0  0  0  0  0  0  0  0  0  0  0
    2.2792   -1.5417    0.0000 C   0  0  0  0  0  0  0  0  0  0  0  0
    8.6667   -3.7917    0.0000 C   0  0  0  0  0  0  0  0  0  0  0  0
   10.1875   -3.8250    0.0000 C   0  0  0  0  0  0  0  0  0  0  0  0
   14.4292   -0.1500    0.0000 Cl  0  0  0  0  0  0  0  0  0  0  0  0
    6.5750   -1.6667    0.0000 C   0  0  0  0  0  0  0  0  0  0  0  0
    3.0042   -1.1500    0.0000 C   0  0  0  0  0  0  0  0  0  0  0  0
    5.8042   -3.7125    0.0000 O   0  0  0  0  0  0  0  0  0  0  0  0
   -0.5833   -1.4667    0.0000 O   0  0  0  0  0  0  0  0  0  0  0  0
    2.3167    0.1083    0.0000 O   0  0  0  0  0  0  0  0  0  0  0  0
   11.4167   -3.3167    0.0000 C   0  0  0  0  0  0  0  0  0  0  0  0
    0.7792   -3.9875    0.0000 O   0  0  0  0  0  0  0  0  0  0  0  0
   11.4667   -0.2792    0.0000 C   0  0  0  0  0  0  0  0  0  0  0  0
   10.9875   -4.0167    0.0000 C   0  0  0  0  0  0  0  0  0  0  0  0
   -2.0833   -3.9042    0.0000 C   0  0  0  0  0  0  0  0  0  0  0  0
   -0.6583   -3.9500    0.0000 C   0  0  0  0  0  0  0  0  0  0  0  0
    7.9375   -4.1792    0.0000 C   0  0  0  0  0  0  0  0  0  0  0  0
    9.3667   -4.2167    0.0000 C   0  0  0  0  0  0  0  0  0  0  0  0
    7.3042   -1.2667    0.0000 C   0  0  0  0  0  0  0  0  0  0  0  0
    5.8667   -1.2292    0.0000 C   0  0  0  0  0  0  0  0  0  0  0  0
   11.6542    0.5208    0.0000 C   0  0  0  0  0  0  0  0  0  0  0  0
  2  1  1  0
 14  3  1  1
  4 24  1  0
  5  6  1  0
  6 20  1  0
  7  4  1  0
  8 10  1  0
  5  9  1  6
 12 10  1  6
 22 11  1  1
 12  2  1  0
 13 19  1  0
 14  1  1  0
 15  9  1  0
 16 11  1  0
 17  3  1  0
 18 21  1  0
 19  7  1  0
 29 20  1  1
 23 21  1  6
 22  8  1  0
 23 16  1  0
 24 17  1  0
 25 15  1  0
 23 26  1  0
 25 27  1  1
 28 25  1  0
 29 18  1  0
 30 27  1  0
 31 26  1  0
 32 28  1  0
 33  2  2  0
 34  3  2  0
 35 55  1  0
 36  4  2  0
 37  6  2  0
 38  8  2  0
 39 15  2  0
 40 16  2  0
 41 18  2  0
  5 42  1  0
 43 31  2  0
 44 30  2  0
 45 32  2  0
 46 35  2  0
 47 13  1  0
 48 13  1  0
 49 13  1  0
 29 50  1  0
 12 51  1  0
 52  1  1  0
 53 19  1  0
 22 54  1  0
 55 50  1  0
 56 31  1  0
 57 30  1  0
 58 35  1  0
 14 59  1  0
 42 60  1  6
 61 24  1  0
 62 52  1  0
 63 32  1  0
 64 42  1  0
 65 51  1  0
 66 51  1  0
 67 54  1  0
 68 54  1  0
 69 61  1  0
 59 62  1  0
M  END

> <chembl_id>
CHEMBL414008

> <chembl_pref_name>
None

$$$$

     RDKit          2D

 72 73  0  0  1  0  0  0  0  0999 V2000
    9.2417   -2.5667    0.0000 N   0  0  0  0  0  0  0  0  0  0  0  0
    8.5375   -2.1375    0.0000 C   0  0  0  0  0  0  0  0  0  0  0  0
   10.2000   -1.4500    0.0000 C   0  0  0  0  0  0  0  0  0  0  0  0
   -0.7833   -2.2917    0.0000 C   0  0  0  0  0  0  0  0  0  0  0  0
   15.7375    0.1833    0.0000 N   0  0  0  0  0  0  0  0  0  0  0  0
   -0.0500   -1.9042    0.0000 C   0  0  0  0  0  0  0  0  0  0  0  0
    6.3750   -2.4917    0.0000 C   0  0  0  0  0  0  0  0  0  0  0  0
   -1.4833   -1.8625    0.0000 N   0  0  0  0  0  0  0  0  0  0  0  0
    7.1042   -2.1000    0.0000 N   0  0  0  0  0  0  0  0  0  0  0  0
   11.9750   -0.1792    0.0000 C   0  0  0  0  0  0  0  0  0  0  0  0
    4.9417   -2.4500    0.0000 N   0  0  0  0  0  0  0  0  0  0  0  0
    7.8042   -2.5292    0.0000 C   0  0  0  0  0  0  0  0  0  0  0  0
   10.0042   -2.2542    0.0000 C   0  0  0  0  0  0  0  0  0  0  0  0
   -2.2125   -2.2542    0.0000 C   0  0  0  0  0  0  0  0  0  0  0  0
    4.2417   -2.0167    0.0000 C   0  0  0  0  0  0  0  0  0  0  0  0
   10.9917   -1.2167    0.0000 N   0  0  0  0  0  0  0  0  0  0  0  0
    2.0792   -2.3750    0.0000 C   0  0  0  0  0  0  0  0  0  0  0  0
    0.6500   -2.3292    0.0000 N   0  0  0  0  0  0  0  0  0  0  0  0
    2.8042   -1.9792    0.0000 N   0  0  0  0  0  0  0  0  0  0  0  0
    5.6750   -2.0542    0.0000 C   0  0  0  0  0  0  0  0  0  0  0  0
    3.5167   -2.4125    0.0000 C   0  0  0  0  0  0  0  0  0  0  0  0
   11.1792   -0.4167    0.0000 N   0  0  0  0  0  0  0  0  0  0  0  0
   -2.9208   -1.8167    0.0000 C   0  0  0  0  0  0  0  0  0  0  0  0
    3.4917   -3.2375    0.0000 C   0  0  0  0  0  0  0  0  0  0  0  0
   -2.8958   -0.9917    0.0000 C   0  0  0  0  0  0  0  0  0  0  0  0
   -3.6458   -2.2167    0.0000 N   0  0  0  0  0  0  0  0  0  0  0  0
    1.3750   -1.9417    0.0000 C   0  0  0  0  0  0  0  0  0  0  0  0
   12.5750   -0.7500    0.0000 O   0  0  0  0  0  0  0  0  0  0  0  0
   -2.1708   -0.6000    0.0000 C   0  0  0  0  0  0  0  0  0  0  0  0
    4.2000   -3.6667    0.0000 C   0  0  0  0  0  0  0  0  0  0  0  0
   14.9417   -0.0500    0.0000 C   0  0  0  0  0  0  0  0  0  0  0  0
   -3.6708   -3.0417    0.0000 C   0  0  0  0  0  0  0  0  0  0  0  0
   16.3375   -0.3792    0.0000 O   0  0  0  0  0  0  0  0  0  0  0  0
    8.5542   -1.3125    0.0000 O   0  0  0  0  0  0  0  0  0  0  0  0
   15.9292    0.9875    0.0000 O   0  0  0  0  0  0  0  0  0  0  0  0
    9.6000   -0.8792    0.0000 O   0  0  0  0  0  0  0  0  0  0  0  0
    2.1500    0.1083    0.0000 C   0  0  0  0  0  0  0  0  0  0  0  0
   12.1667    0.6208    0.0000 O   0  0  0  0  0  0  0  0  0  0  0  0
   -0.0333   -1.0750    0.0000 O   0  0  0  0  0  0  0  0  0  0  0  0
    6.3542   -3.3167    0.0000 O   0  0  0  0  0  0  0  0  0  0  0  0
    4.2625   -1.1917    0.0000 O   0  0  0  0  0  0  0  0  0  0  0  0
   -2.2333   -3.0792    0.0000 O   0  0  0  0  0  0  0  0  0  0  0  0
    2.0542   -3.2000    0.0000 O   0  0  0  0  0  0  0  0  0  0  0  0
   -0.8083   -3.1167    0.0000 C   0  0  0  0  0  0  0  0  0  0  0  0
   -2.1458    0.2250    0.0000 O   0  0  0  0  0  0  0  0  0  0  0  0
    4.1750   -4.5000    0.0000 O   0  0  0  0  0  0  0  0  0  0  0  0
   -4.3958   -3.4375    0.0000 O   0  0  0  0  0  0  0  0  0  0  0  0
    2.8792    0.5000    0.0000 O   0  0  0  0  0  0  0  0  0  0  0  0
    1.4042   -1.1125    0.0000 C   0  0  0  0  0  0  0  0  0  0  0  0
   14.3417    0.5208    0.0000 C   0  0  0  0  0  0  0  0  0  0  0  0
   14.7500   -0.8542    0.0000 C   0  0  0  0  0  0  0  0  0  0  0  0
    7.7875   -3.3542    0.0000 C   0  0  0  0  0  0  0  0  0  0  0  0
   13.3667   -0.5167    0.0000 C   0  0  0  0  0  0  0  0  0  0  0  0
    9.3042   -3.3917    0.0000 C   0  0  0  0  0  0  0  0  0  0  0  0
    5.6917   -1.2292    0.0000 C   0  0  0  0  0  0  0  0  0  0  0  0
    2.1292   -0.7167    0.0000 C   0  0  0  0  0  0  0  0  0  0  0  0
    4.9250   -3.2792    0.0000 O   0  0  0  0  0  0  0  0  0  0  0  0
   -1.4625   -1.0292    0.0000 O   0  0  0  0  0  0  0  0  0  0  0  0
    1.4417    0.5375    0.0000 O   0  0  0  0  0  0  0  0  0  0  0  0
   13.5542    0.2833    0.0000 C   0  0  0  0  0  0  0  0  0  0  0  0
   13.9542   -1.0875    0.0000 C   0  0  0  0  0  0  0  0  0  0  0  0
   10.5417   -2.8792    0.0000 C   0  0  0  0  0  0  0  0  0  0  0  0
   -0.1000   -3.5542    0.0000 O   0  0  0  0  0  0  0  0  0  0  0  0
   10.5792    0.1583    0.0000 C   0  0  0  0  0  0  0  0  0  0  0  0
   10.1042   -3.5875    0.0000 C   0  0  0  0  0  0  0  0  0  0  0  0
   -2.9625   -3.4750    0.0000 C   0  0  0  0  0  0  0  0  0  0  0  0
   -1.5333   -3.5167    0.0000 C   0  0  0  0  0  0  0  0  0  0  0  0
    7.0542   -3.7500    0.0000 C   0  0  0  0  0  0  0  0  0  0  0  0
    8.4917   -3.7875    0.0000 C   0  0  0  0  0  0  0  0  0  0  0  0
    6.4250   -0.8375    0.0000 C   0  0  0  0  0  0  0  0  0  0  0  0
    4.9917   -0.8000    0.0000 C   0  0  0  0  0  0  0  0  0  0  0  0
   10.7792    0.9583    0.0000 C   0  0  0  0  0  0  0  0  0  0  0  0
  2  1  1  0
 13  3  1  1
  4  6  1  0
  5 31  1  0
  6 18  1  0
  7  9  1  0
  4  8  1  6
 12  9  1  6
 10 22  1  0
 20 11  1  1
 12  2  1  0
 13  1  1  0
 14  8  1  0
 15 11  1  0
 16  3  1  0
 17 19  1  0
 27 18  1  1
 21 19  1  6
 20  7  1  0
 21 15  1  0
 22 16  1  0
 23 14  1  0
 21 24  1  0
 23 25  1  1
 26 23  1  0
 27 17  1  0
 28 10  1  0
 29 25  1  0
 30 24  1  0
 31 51  2  0
 32 26  1  0
 33  5  1  0
 34  2  2  0
 35  5  2  0
 36  3  2  0
 37 56  1  0
 38 10  2  0
 39  6  2  0
 40  7  2  0
 41 15  2  0
 42 14  2  0
 43 17  2  0
  4 44  1  0
 45 29  2  0
 46 30  2  0
 47 32  2  0
 48 37  2  0
 27 49  1  0
 50 60  2  0
 51 61  1  0
 12 52  1  0
 53 28  1  0
 54  1  1  0
 20 55  1  0
 56 49  1  0
 57 30  1  0
 58 29  1  0
 59 37  1  0
 60 53  1  0
 61 53  2  0
 13 62  1  0
 44 63  1  6
 64 22  1  0
 65 54  1  0
 66 32  1  0
 67 44  1  0
 68 52  1  0
 69 52  1  0
 70 55  1  0
 71 55  1  0
 72 64  1  0
 62 65  1  0
 31 50  1  0
M  CHG  2   5   1  33  -1
M  END

> <chembl_id>
CHEMBL438993

> <chembl_pref_name>
None

$$$$

     RDKit          2D

 25 27  0  0  0  0  0  0  0  0999 V2000
   -4.9815    2.3432    0.0000 C   0  0  0  0  0  0  0  0  0  0  0  0
   -4.6460    1.5895    0.0000 C   0  0  0  0  0  0  0  0  0  0  0  0
   -3.8390    1.4180    0.0000 C   0  0  0  0  0  0  0  0  0  0  0  0
   -3.7528    0.5975    0.0000 C   0  0  0  0  0  0  0  0  0  0  0  0
   -4.5065    0.2620    0.0000 O   0  0  0  0  0  0  0  0  0  0  0  0
   -5.0585    0.8751    0.0000 N   0  0  0  0  0  0  0  0  0  0  0  0
   -3.0383    0.1850    0.0000 C   0  0  0  0  0  0  0  0  0  0  0  0
   -2.3238    0.5975    0.0000 C   0  0  0  0  0  0  0  0  0  0  0  0
   -1.6094    0.1850    0.0000 C   0  0  0  0  0  0  0  0  0  0  0  0
   -0.8949    0.5975    0.0000 C   0  0  0  0  0  0  0  0  0  0  0  0
   -0.1804    0.1850    0.0000 C   0  0  0  0  0  0  0  0  0  0  0  0
    0.5340    0.5975    0.0000 O   0  0  0  0  0  0  0  0  0  0  0  0
    1.2485    0.1850    0.0000 C   0  0  0  0  0  0  0  0  0  0  0  0
    1.9630    0.5975    0.0000 C   0  0  0  0  0  0  0  0  0  0  0  0
    1.9630    1.4225    0.0000 Cl  0  0  0  0  0  0  0  0  0  0  0  0
    2.6775    0.1850    0.0000 C   0  0  0  0  0  0  0  0  0  0  0  0
    2.6775   -0.6400    0.0000 C   0  0  0  0  0  0  0  0  0  0  0  0
    1.9630   -1.0525    0.0000 C   0  0  0  0  0  0  0  0  0  0  0  0
    1.2485   -0.6400    0.0000 C   0  0  0  0  0  0  0  0  0  0  0  0
    0.5340   -1.0525    0.0000 Cl  0  0  0  0  0  0  0  0  0  0  0  0
    3.3919   -1.0525    0.0000 C   0  0  0  0  0  0  0  0  0  0  0  0
    4.1456   -0.7169    0.0000 N   0  0  0  0  0  0  0  0  0  0  0  0
    4.6976   -1.3300    0.0000 C   0  0  0  0  0  0  0  0  0  0  0  0
    4.2851   -2.0445    0.0000 C   0  0  0  0  0  0  0  0  0  0  0  0
    3.4782   -1.8730    0.0000 O   0  0  0  0  0  0  0  0  0  0  0  0
  2  1  1  0
  2  3  1  0
  2  6  2  0
  3  4  2  0
  4  5  1  0
  7  4  1  0
  6  5  1  0
  7  8  1  0
  8  9  1  0
  9 10  1  0
 10 11  1  0
 11 12  1  0
 13 12  1  0
 13 14  2  0
 13 19  1  0
 14 15  1  0
 14 16  1  0
 16 17  2  0
 17 18  1  0
 21 17  1  0
 18 19  2  0
 19 20  1  0
 21 22  2  0
 21 25  1  0
 23 22  1  0
 23 24  1  0
 24 25  1  0
M  END

> <chembl_id>
CHEMBL6594

> <chembl_pref_name>
WIN-54954

$$$$

     RDKit          2D

 31 32  0  0  1  0  0  0  0  0999 V2000
   -3.9583    0.2333    0.0000 C   0  0  0  0  0  0  0  0  0  0  0  0
   -3.3333   -0.5167    0.0000 C   0  0  0  0  0  0  0  0  0  0  0  0
   -4.2833   -0.2750    0.0000 C   0  0  0  0  0  0  0  0  0  0  0  0
   -3.3708    0.0833    0.0000 C   0  0  0  0  0  0  0  0  0  0  0  0
   -3.8958   -0.7417    0.0000 C   0  0  0  0  0  0  0  0  0  0  0  0
   -2.8333   -0.8417    0.0000 C   0  0  0  0  0  0  0  0  0  0  0  0
    0.2917    0.2333    0.0000 C   0  0  0  0  0  0  0  0  0  0  0  0
   -4.1750    0.8000    0.0000 O   0  0  0  0  0  0  0  0  0  0  0  0
   -2.2958   -0.5667    0.0000 C   0  0  0  0  0  0  0  0  0  0  0  0
    0.3000   -0.3667    0.0000 O   0  0  0  0  0  0  0  0  0  0  0  0
   -1.2625   -0.6042    0.0000 C   0  0  0  0  0  0  0  0  0  0  0  0
   -1.8833    0.6333    0.0000 C   0  0  0  0  0  0  0  0  0  0  0  0
   -1.2875    0.6250    0.0000 C   0  0  0  0  0  0  0  0  0  0  0  0
   -4.0458   -1.3167    0.0000 O   0  0  0  0  0  0  0  0  0  0  0  0
   -0.7583   -0.9292    0.0000 C   0  0  0  0  0  0  0  0  0  0  0  0
    0.8042    0.5375    0.0000 O   0  0  0  0  0  0  0  0  0  0  0  0
   -1.2000   -1.2042    0.0000 O   0  0  0  0  0  0  0  0  0  0  0  0
   -0.2208   -0.6542    0.0000 C   0  0  0  0  0  0  0  0  0  0  0  0
   -1.7958   -0.8917    0.0000 C   0  0  0  0  0  0  0  0  0  0  0  0
   -2.9083    0.4708    0.0000 C   0  0  0  0  0  0  0  0  0  0  0  0
    0.2792   -0.9792    0.0000 C   0  0  0  0  0  0  0  0  0  0  0  0
   -0.2250    0.5333    0.0000 C   0  0  0  0  0  0  0  0  0  0  0  0
   -2.3500    0.2583    0.0000 C   0  0  0  0  0  0  0  0  0  0  0  0
   -0.7500    0.2333    0.0000 C   0  0  0  0  0  0  0  0  0  0  0  0
   -1.1750   -0.0167    0.0000 C   0  0  0  0  0  0  0  0  0  0  0  0
    1.3917    0.4208    0.0000 C   0  0  0  0  0  0  0  0  0  0  0  0
    0.2542   -1.5792    0.0000 C   0  0  0  0  0  0  0  0  0  0  0  0
    0.8125   -0.7042    0.0000 C   0  0  0  0  0  0  0  0  0  0  0  0
    1.3167   -1.0167    0.0000 C   0  0  0  0  0  0  0  0  0  0  0  0
    0.7625   -1.8917    0.0000 C   0  0  0  0  0  0  0  0  0  0  0  0
    1.2917   -1.6167    0.0000 C   0  0  0  0  0  0  0  0  0  0  0  0
  2  4  1  0
  3  1  1  0
  4  1  1  0
  5  3  1  0
  2  6  1  1
  7 22  1  0
  8  1  2  0
  9  6  2  0
 10  7  2  0
 11 19  1  0
 12 23  1  0
 13 12  2  0
  5 14  1  6
 15 11  1  0
 16  7  1  0
 11 17  1  0
 18 15  1  0
 19  9  1  0
  4 20  1  6
 21 18  1  0
 22 24  1  0
 23 20  1  0
 24 13  1  0
 25 11  1  0
 26 16  1  0
 27 21  1  0
 28 21  1  0
 29 28  1  0
 30 27  1  0
 31 29  1  0
  2  5  1  0
 30 31  1  0
M  END

> <chembl_id>
CHEMBL6418

> <chembl_pref_name>
None

$$$$

     RDKit          2D

 32 34  0  0  0  0  0  0  0  0999 V2000
    6.4667    0.7750    0.0000 C   0  0  0  0  0  0  0  0  0  0  0  0
    6.7250    1.3208    0.0000 N   0  0  0  0  0  0  0  0  0  0  0  0
    6.9125    0.3625    0.0000 N   0  0  0  0  0  0  0  0  0  0  0  0
    7.4292    0.6583    0.0000 N   0  0  0  0  0  0  0  0  0  0  0  0
    7.3167    1.2458    0.0000 N   0  0  0  0  0  0  0  0  0  0  0  0
   -0.0458    0.3958    0.0000 N   0  0  0  0  0  0  0  0  0  0  0  0
    5.8792    0.6583    0.0000 C   0  0  0  0  0  0  0  0  0  0  0  0
    0.9917    1.0000    0.0000 C   0  0  0  0  0  0  0  0  0  0  0  0
    0.4792    0.0958    0.0000 O   0  0  0  0  0  0  0  0  0  0  0  0
   -0.0458    0.9958    0.0000 C   0  0  0  0  0  0  0  0  0  0  0  0
    4.9042    1.0000    0.0000 C   0  0  0  0  0  0  0  0  0  0  0  0
    5.1042   -0.0167    0.0000 C   0  0  0  0  0  0  0  0  0  0  0  0
    4.7042    0.4333    0.0000 C   0  0  0  0  0  0  0  0  0  0  0  0
    5.4917    1.1125    0.0000 C   0  0  0  0  0  0  0  0  0  0  0  0
    5.6917    0.0958    0.0000 C   0  0  0  0  0  0  0  0  0  0  0  0
    0.9917    0.4000    0.0000 C   0  0  0  0  0  0  0  0  0  0  0  0
   -1.4833    1.6750    0.0000 C   0  0  0  0  0  0  0  0  0  0  0  0
    4.1042    0.4333    0.0000 O   0  0  0  0  0  0  0  0  0  0  0  0
    7.7292    1.6833    0.0000 C   0  0  0  0  0  0  0  0  0  0  0  0
   -1.0500    1.2583    0.0000 O   0  0  0  0  0  0  0  0  0  0  0  0
   -2.0583    1.5208    0.0000 O   0  0  0  0  0  0  0  0  0  0  0  0
   -0.4708    1.4125    0.0000 C   0  0  0  0  0  0  0  0  0  0  0  0
    4.9042   -0.5917    0.0000 C   0  0  0  0  0  0  0  0  0  0  0  0
    4.5042    1.4500    0.0000 C   0  0  0  0  0  0  0  0  0  0  0  0
   -3.4958    2.2083    0.0000 O   0  0  0  0  0  0  0  0  0  0  0  0
    1.5167    0.1083    0.0000 C   0  0  0  0  0  0  0  0  0  0  0  0
   -3.0625    1.7833    0.0000 C   0  0  0  0  0  0  0  0  0  0  0  0
    3.5917    0.1250    0.0000 C   0  0  0  0  0  0  0  0  0  0  0  0
   -2.4833    1.9375    0.0000 C   0  0  0  0  0  0  0  0  0  0  0  0
    2.0292    0.4083    0.0000 C   0  0  0  0  0  0  0  0  0  0  0  0
    3.0750    0.4208    0.0000 C   0  0  0  0  0  0  0  0  0  0  0  0
    2.5542    0.1125    0.0000 C   0  0  0  0  0  0  0  0  0  0  0  0
  2  1  2  0
  3  1  1  0
  4  3  2  0
  5  2  1  0
  6  9  1  0
  7  1  1  0
  8 16  2  0
  9 16  1  0
 10  8  1  0
 11 14  2  0
 12 15  1  0
 13 12  2  0
 14  7  1  0
 15  7  2  0
 16 26  1  0
 17 20  1  0
 18 13  1  0
 19  5  1  0
 20 22  1  0
 21 17  1  0
 22 10  1  0
 23 12  1  0
 24 11  1  0
 25 27  1  0
 26 30  1  0
 27 29  1  0
 28 18  1  0
 29 21  1  0
 30 32  1  0
 31 28  1  0
 32 31  1  0
  5  4  1  0
 13 11  1  0
  6 10  2  0
M  END

> <chembl_id>
CHEMBL268412

> <chembl_pref_name>
None

$$$$

     RDKit          2D

 22 25  0  0  0  0  0  0  0  0999 V2000
    6.5667   -2.6417    0.0000 N   0  0  0  0  0  0  0  0  0  0  0  0
    5.8542   -3.0542    0.0000 C   0  0  0  0  0  0  0  0  0  0  0  0
    5.1375   -2.6375    0.0000 C   0  0  0  0  0  0  0  0  0  0  0  0
    5.1417   -1.8125    0.0000 C   0  0  0  0  0  0  0  0  0  0  0  0
    5.8542   -1.3917    0.0000 C   0  0  0  0  0  0  0  0  0  0  0  0
    6.5667   -1.8125    0.0000 C   0  0  0  0  0  0  0  0  0  0  0  0
    6.5625   -4.2917    0.0000 N   0  0  0  0  0  0  0  0  0  0  0  0
    5.8500   -3.8750    0.0000 C   0  0  0  0  0  0  0  0  0  0  0  0
    7.2875   -3.0542    0.0000 C   0  0  0  0  0  0  0  0  0  0  0  0
    5.8542   -0.5750    0.0000 C   0  0  0  0  0  0  0  0  0  0  0  0
    7.2792   -3.8792    0.0000 C   0  0  0  0  0  0  0  0  0  0  0  0
    4.4250   -3.0542    0.0000 C   0  0  0  0  0  0  0  0  0  0  0  0
    4.4250   -1.4000    0.0000 C   0  0  0  0  0  0  0  0  0  0  0  0
    6.5542   -5.1167    0.0000 C   0  0  0  0  0  0  0  0  0  0  0  0
    5.1417   -0.1667    0.0000 C   0  0  0  0  0  0  0  0  0  0  0  0
    6.5667   -0.1542    0.0000 C   0  0  0  0  0  0  0  0  0  0  0  0
    5.8417   -5.5292    0.0000 C   0  0  0  0  0  0  0  0  0  0  0  0
    3.7125   -2.6417    0.0000 C   0  0  0  0  0  0  0  0  0  0  0  0
    3.7125   -1.8125    0.0000 C   0  0  0  0  0  0  0  0  0  0  0  0
    5.1417    0.6583    0.0000 C   0  0  0  0  0  0  0  0  0  0  0  0
    6.5667    0.6625    0.0000 C   0  0  0  0  0  0  0  0  0  0  0  0
    5.8542    1.0750    0.0000 C   0  0  0  0  0  0  0  0  0  0  0  0
  2  1  1  0
  3  2  1  0
  4  5  1  0
  5  6  1  0
  6  1  1  0
  7 11  1  0
  8  2  1  0
  9  1  1  0
 10  5  1  0
 11  9  1  0
 12  3  2  0
 13  4  2  0
 14  7  1  0
 15 10  1  0
 16 10  2  0
 17 14  1  0
 18 12  1  0
 19 13  1  0
 20 15  2  0
 21 16  1  0
 22 21  2  0
  8  7  1  0
  4  3  1  0
 19 18  2  0
 22 20  1  0
M  END

> <chembl_id>
CHEMBL6747

> <chembl_pref_name>
None

$$$$

     RDKit          2D

 22 25  0  0  0  0  0  0  0  0999 V2000
    7.5042   -4.8292    0.0000 N   0  0  0  0  0  0  0  0  0  0  0  0
    6.7875   -5.2417    0.0000 C   0  0  0  0  0  0  0  0  0  0  0  0
    6.0667   -4.8250    0.0000 C   0  0  0  0  0  0  0  0  0  0  0  0
    6.0750   -4.0000    0.0000 C   0  0  0  0  0  0  0  0  0  0  0  0
    6.7875   -3.5792    0.0000 C   0  0  0  0  0  0  0  0  0  0  0  0
    7.5042   -4.0000    0.0000 C   0  0  0  0  0  0  0  0  0  0  0  0
    7.4917   -6.4792    0.0000 N   0  0  0  0  0  0  0  0  0  0  0  0
    6.7792   -6.0625    0.0000 C   0  0  0  0  0  0  0  0  0  0  0  0
    6.7875   -2.7625    0.0000 C   0  0  0  0  0  0  0  0  0  0  0  0
    8.2167   -5.2417    0.0000 C   0  0  0  0  0  0  0  0  0  0  0  0
    6.0750   -2.3542    0.0000 C   0  0  0  0  0  0  0  0  0  0  0  0
    7.5042   -2.3500    0.0000 C   0  0  0  0  0  0  0  0  0  0  0  0
    8.2125   -6.0667    0.0000 C   0  0  0  0  0  0  0  0  0  0  0  0
    6.7917   -1.1125    0.0000 C   0  0  0  0  0  0  0  0  0  0  0  0
    6.7875   -0.2875    0.0000 N   0  0  0  0  0  0  0  0  0  0  0  0
    7.5042   -1.5250    0.0000 C   0  0  0  0  0  0  0  0  0  0  0  0
    6.0750   -1.5292    0.0000 C   0  0  0  0  0  0  0  0  0  0  0  0
    5.3542   -5.2417    0.0000 C   0  0  0  0  0  0  0  0  0  0  0  0
    5.3542   -3.5875    0.0000 C   0  0  0  0  0  0  0  0  0  0  0  0
    7.4917   -7.3042    0.0000 C   0  0  0  0  0  0  0  0  0  0  0  0
    4.6417   -4.0000    0.0000 C   0  0  0  0  0  0  0  0  0  0  0  0
    4.6417   -4.8292    0.0000 C   0  0  0  0  0  0  0  0  0  0  0  0
  2  1  1  0
  3  2  1  0
  4  5  1  0
  5  6  1  0
  6  1  1  0
  7 13  1  0
  8  2  1  0
  9  5  1  0
 10  1  1  0
 11  9  1  0
 12  9  2  0
 13 10  1  0
 14 16  2  0
 15 14  1  0
 16 12  1  0
 17 11  2  0
 18  3  2  0
 19  4  2  0
 20  7  1  0
 21 19  1  0
 22 18  1  0
  8  7  1  0
  4  3  1  0
 21 22  2  0
 14 17  1  0
M  END

> <chembl_id>
CHEMBL6455

> <chembl_pref_name>
None

$$$$

     RDKit          2D

 22 25  0  0  0  0  0  0  0  0999 V2000
    7.7167   -4.8542    0.0000 N   0  0  0  0  0  0  0  0  0  0  0  0
    7.0042   -5.2667    0.0000 C   0  0  0  0  0  0  0  0  0  0  0  0
    6.2875   -4.8542    0.0000 C   0  0  0  0  0  0  0  0  0  0  0  0
    6.2917   -4.0292    0.0000 C   0  0  0  0  0  0  0  0  0  0  0  0
    7.0042   -3.6125    0.0000 C   0  0  0  0  0  0  0  0  0  0  0  0
    7.7167   -4.0292    0.0000 C   0  0  0  0  0  0  0  0  0  0  0  0
    7.7125   -6.5042    0.0000 N   0  0  0  0  0  0  0  0  0  0  0  0
    7.0000   -6.0917    0.0000 C   0  0  0  0  0  0  0  0  0  0  0  0
    7.0042   -2.7917    0.0000 C   0  0  0  0  0  0  0  0  0  0  0  0
    8.4375   -5.2667    0.0000 C   0  0  0  0  0  0  0  0  0  0  0  0
    6.2917   -2.3792    0.0000 C   0  0  0  0  0  0  0  0  0  0  0  0
    7.7167   -2.3792    0.0000 C   0  0  0  0  0  0  0  0  0  0  0  0
    8.4292   -6.1000    0.0000 C   0  0  0  0  0  0  0  0  0  0  0  0
    7.0042   -1.1417    0.0000 C   0  0  0  0  0  0  0  0  0  0  0  0
    6.2917   -1.5542    0.0000 C   0  0  0  0  0  0  0  0  0  0  0  0
    7.7167   -1.5542    0.0000 C   0  0  0  0  0  0  0  0  0  0  0  0
    5.5750   -5.2667    0.0000 C   0  0  0  0  0  0  0  0  0  0  0  0
    5.5750   -3.6167    0.0000 C   0  0  0  0  0  0  0  0  0  0  0  0
    7.0042   -0.3167    0.0000 O   0  0  0  0  0  0  0  0  0  0  0  0
    7.7042   -7.3292    0.0000 C   0  0  0  0  0  0  0  0  0  0  0  0
    4.8625   -4.0292    0.0000 C   0  0  0  0  0  0  0  0  0  0  0  0
    4.8625   -4.8542    0.0000 C   0  0  0  0  0  0  0  0  0  0  0  0
  2  1  1  0
  3  2  1  0
  4  5  1  0
  5  6  1  0
  6  1  1  0
  7 13  1  0
  8  2  1  0
  9  5  1  0
 10  1  1  0
 11  9  1  0
 12  9  2  0
 13 10  1  0
 14 16  2  0
 15 11  2  0
 16 12  1  0
 17  3  2  0
 18  4  2  0
 19 14  1  0
 20  7  1  0
 21 18  1  0
 22 17  1  0
  8  7  1  0
  4  3  1  0
 21 22  2  0
 14 15  1  0
M  END

> <chembl_id>
CHEMBL540195

> <chembl_pref_name>
None

$$$$

     RDKit          2D

 14 16  0  0  0  0  0  0  0  0999 V2000
   -2.5023   -2.3666    0.0000 C   0  0  0  0  0  0  0  0  0  0  0  0
   -2.9675   -1.8536    0.0000 C   0  0  0  0  0  0  0  0  0  0  0  0
   -3.1751   -1.1617    0.0000 C   0  0  0  0  0  0  0  0  0  0  0  0
   -2.6126   -1.5703    0.0000 C   0  0  0  0  0  0  0  0  0  0  0  0
   -3.9279   -1.0639    0.0000 N   0  0  0  0  0  0  0  0  0  0  0  0
   -2.5392   -0.6043    0.0000 C   0  0  0  0  0  0  0  0  0  0  0  0
   -2.0793   -1.0524    0.0000 C   0  0  0  0  0  0  0  0  0  0  0  0
   -3.2022    1.4815    0.0000 N   0  0  0  0  0  0  0  0  0  0  0  0
   -3.2248    0.6514    0.0000 C   0  0  0  0  0  0  0  0  0  0  0  0
   -2.5188    0.2246    0.0000 C   0  0  0  0  0  0  0  0  0  0  0  0
   -1.7897    0.6212    0.0000 C   0  0  0  0  0  0  0  0  0  0  0  0
   -1.7702    1.4566    0.0000 C   0  0  0  0  0  0  0  0  0  0  0  0
   -2.4836    1.8770    0.0000 C   0  0  0  0  0  0  0  0  0  0  0  0
   -2.4635    2.7038    0.0000 Cl  0  0  0  0  0  0  0  0  0  0  0  0
  1  2  1  0
  2  3  1  0
  4  1  1  0
  4  5  1  0
  5  3  1  0
  3  6  1  0
  6  7  1  0
  4  7  1  0
  8  9  2  0
  9 10  1  0
 10 11  2  0
 11 12  1  0
 12 13  2  0
 13  8  1  0
 13 14  1  0
  6 10  1  0
M  END

> <chembl_id>
CHEMBL6623

> <chembl_pref_name>
EPIBATIDINE

$$$$

     RDKit          2D

 29 32  0  0  0  0  0  0  0  0999 V2000
    5.4292   -7.7875    0.0000 C   0  0  0  0  0  0  0  0  0  0  0  0
    5.4375   -8.6167    0.0000 N   0  0  0  0  0  0  0  0  0  0  0  0
    4.0042   -8.6167    0.0000 C   0  0  0  0  0  0  0  0  0  0  0  0
    4.7250   -9.0292    0.0000 C   0  0  0  0  0  0  0  0  0  0  0  0
    4.7167   -7.3792    0.0000 N   0  0  0  0  0  0  0  0  0  0  0  0
    4.0042   -7.7917    0.0000 C   0  0  0  0  0  0  0  0  0  0  0  0
    6.1417   -7.3667    0.0000 N   0  0  0  0  0  0  0  0  0  0  0  0
    8.2792   -6.1292    0.0000 C   0  0  0  0  0  0  0  0  0  0  0  0
    3.2917   -9.0375    0.0000 C   0  0  0  0  0  0  0  0  0  0  0  0
    8.2792   -5.3042    0.0000 N   0  0  0  0  0  0  0  0  0  0  0  0
    3.2917   -7.3792    0.0000 C   0  0  0  0  0  0  0  0  0  0  0  0
    2.5792   -8.6250    0.0000 C   0  0  0  0  0  0  0  0  0  0  0  0
    2.5792   -7.8000    0.0000 C   0  0  0  0  0  0  0  0  0  0  0  0
    7.5667   -6.5417    0.0000 C   0  0  0  0  0  0  0  0  0  0  0  0
    6.8542   -7.7792    0.0000 C   0  0  0  0  0  0  0  0  0  0  0  0
    6.1375   -6.5417    0.0000 C   0  0  0  0  0  0  0  0  0  0  0  0
    8.9917   -6.5375    0.0000 O   0  0  0  0  0  0  0  0  0  0  0  0
    4.7250   -9.8542    0.0000 N   0  0  0  0  0  0  0  0  0  0  0  0
    6.8500   -6.1292    0.0000 C   0  0  0  0  0  0  0  0  0  0  0  0
    7.5667   -7.3667    0.0000 C   0  0  0  0  0  0  0  0  0  0  0  0
    8.2792   -3.6542    0.0000 O   0  0  0  0  0  0  0  0  0  0  0  0
    1.8625   -9.0375    0.0000 O   0  0  0  0  0  0  0  0  0  0  0  0
    1.8667   -7.3875    0.0000 O   0  0  0  0  0  0  0  0  0  0  0  0
    8.9917   -4.8917    0.0000 C   0  0  0  0  0  0  0  0  0  0  0  0
    7.5667   -4.9000    0.0000 C   0  0  0  0  0  0  0  0  0  0  0  0
    7.5667   -4.0667    0.0000 C   0  0  0  0  0  0  0  0  0  0  0  0
    8.9917   -4.0667    0.0000 C   0  0  0  0  0  0  0  0  0  0  0  0
    1.8625   -9.8625    0.0000 C   0  0  0  0  0  0  0  0  0  0  0  0
    1.8667   -6.5625    0.0000 C   0  0  0  0  0  0  0  0  0  0  0  0
  2  1  1  0
  3  6  1  0
  4  2  2  0
  5  1  2  0
  6  5  1  0
  7  1  1  0
  8 14  1  0
  9  3  2  0
 10  8  1  0
 11  6  2  0
 12 13  2  0
 13 11  1  0
 14 19  1  0
 15  7  1  0
 16  7  1  0
 17  8  2  0
 18  4  1  0
 19 16  1  0
 20 15  1  0
 21 26  1  0
 22 12  1  0
 23 13  1  0
 24 10  1  0
 25 10  1  0
 26 25  1  0
 27 24  1  0
 28 22  1  0
 29 23  1  0
  4  3  1  0
 14 20  1  0
 12  9  1  0
 27 21  1  0
M  END

> <chembl_id>
CHEMBL6610

> <chembl_pref_name>
None

$$$$

     RDKit          2D

 32 33  0  0  1  0  0  0  0  0999 V2000
    0.1500   -2.8417    0.0000 C   0  0  0  0  0  0  0  0  0  0  0  0
    0.7292   -3.6292    0.0000 C   0  0  0  0  0  0  0  0  0  0  0  0
   -0.1958   -3.3292    0.0000 C   0  0  0  0  0  0  0  0  0  0  0  0
    0.7167   -3.0167    0.0000 C   0  0  0  0  0  0  0  0  0  0  0  0
    0.1625   -3.8167    0.0000 C   0  0  0  0  0  0  0  0  0  0  0  0
    1.2167   -3.9750    0.0000 C   0  0  0  0  0  0  0  0  0  0  0  0
    4.4125   -2.9417    0.0000 C   0  0  0  0  0  0  0  0  0  0  0  0
   -0.0458   -2.2750    0.0000 O   0  0  0  0  0  0  0  0  0  0  0  0
    1.7667   -3.7250    0.0000 C   0  0  0  0  0  0  0  0  0  0  0  0
    4.4167   -3.5417    0.0000 O   0  0  0  0  0  0  0  0  0  0  0  0
    2.8000   -3.8167    0.0000 C   0  0  0  0  0  0  0  0  0  0  0  0
    2.8292   -2.5542    0.0000 C   0  0  0  0  0  0  0  0  0  0  0  0
    2.2375   -2.5500    0.0000 C   0  0  0  0  0  0  0  0  0  0  0  0
   -0.0125   -4.3917    0.0000 O   0  0  0  0  0  0  0  0  0  0  0  0
    3.2917   -4.1667    0.0000 C   0  0  0  0  0  0  0  0  0  0  0  0
    4.9250   -2.6417    0.0000 O   0  0  0  0  0  0  0  0  0  0  0  0
    2.8292   -4.4167    0.0000 O   0  0  0  0  0  0  0  0  0  0  0  0
    3.8375   -3.9167    0.0000 C   0  0  0  0  0  0  0  0  0  0  0  0
    2.2542   -4.0667    0.0000 C   0  0  0  0  0  0  0  0  0  0  0  0
    1.2042   -2.7042    0.0000 C   0  0  0  0  0  0  0  0  0  0  0  0
    4.3250   -4.2542    0.0000 C   0  0  0  0  0  0  0  0  0  0  0  0
    3.8917   -2.6417    0.0000 C   0  0  0  0  0  0  0  0  0  0  0  0
    1.7667   -2.9250    0.0000 C   0  0  0  0  0  0  0  0  0  0  0  0
    3.3667   -2.9417    0.0000 C   0  0  0  0  0  0  0  0  0  0  0  0
    2.9042   -3.2292    0.0000 C   0  0  0  0  0  0  0  0  0  0  0  0
    5.5125   -2.7625    0.0000 C   0  0  0  0  0  0  0  0  0  0  0  0
    4.8417   -3.9542    0.0000 C   0  0  0  0  0  0  0  0  0  0  0  0
    4.2250   -4.8542    0.0000 C   0  0  0  0  0  0  0  0  0  0  0  0
    4.6250   -5.2875    0.0000 C   0  0  0  0  0  0  0  0  0  0  0  0
    5.4000   -4.1917    0.0000 C   0  0  0  0  0  0  0  0  0  0  0  0
    5.5667   -4.7667    0.0000 C   0  0  0  0  0  0  0  0  0  0  0  0
    5.2292   -5.2542    0.0000 C   0  0  0  0  0  0  0  0  0  0  0  0
  2  4  1  0
  3  1  1  0
  4  1  1  0
  5  3  1  0
  2  6  1  1
  7 22  1  0
  8  1  2  0
  9  6  2  0
 10  7  2  0
 11 19  1  0
 12 13  2  0
 13 23  1  0
  5 14  1  6
 15 11  1  0
 16  7  1  0
 11 17  1  0
 18 15  1  0
 19  9  1  0
  4 20  1  6
 21 18  1  0
 22 24  1  0
 23 20  1  0
 24 12  1  0
 25 11  1  0
 26 16  1  0
 27 21  1  0
 28 21  1  0
 29 28  1  0
 30 27  1  0
 31 30  1  0
 32 29  1  0
  2  5  1  0
 31 32  1  0
M  END

> <chembl_id>
CHEMBL6435

> <chembl_pref_name>
None

$$$$

     RDKit          2D

 20 23  0  0  0  0  0  0  0  0999 V2000
    6.8167   -4.7375    0.0000 N   0  0  0  0  0  0  0  0  0  0  0  0
    5.3917   -3.9042    0.0000 C   0  0  0  0  0  0  0  0  0  0  0  0
    6.1042   -3.4917    0.0000 C   0  0  0  0  0  0  0  0  0  0  0  0
    5.3875   -4.7292    0.0000 C   0  0  0  0  0  0  0  0  0  0  0  0
    6.8167   -3.9042    0.0000 C   0  0  0  0  0  0  0  0  0  0  0  0
    6.1042   -5.1500    0.0000 C   0  0  0  0  0  0  0  0  0  0  0  0
    6.8125   -6.3875    0.0000 N   0  0  0  0  0  0  0  0  0  0  0  0
    6.1042   -2.6667    0.0000 C   0  0  0  0  0  0  0  0  0  0  0  0
    6.1000   -5.9667    0.0000 C   0  0  0  0  0  0  0  0  0  0  0  0
    7.5375   -5.1500    0.0000 C   0  0  0  0  0  0  0  0  0  0  0  0
    4.6750   -3.4917    0.0000 C   0  0  0  0  0  0  0  0  0  0  0  0
    4.6750   -5.1500    0.0000 C   0  0  0  0  0  0  0  0  0  0  0  0
    7.5292   -5.9792    0.0000 C   0  0  0  0  0  0  0  0  0  0  0  0
    6.8167   -2.2542    0.0000 C   0  0  0  0  0  0  0  0  0  0  0  0
    5.3917   -2.2625    0.0000 C   0  0  0  0  0  0  0  0  0  0  0  0
    3.9625   -4.7375    0.0000 C   0  0  0  0  0  0  0  0  0  0  0  0
    3.9625   -3.9125    0.0000 C   0  0  0  0  0  0  0  0  0  0  0  0
    5.3917   -1.4375    0.0000 C   0  0  0  0  0  0  0  0  0  0  0  0
    6.8167   -1.4292    0.0000 C   0  0  0  0  0  0  0  0  0  0  0  0
    6.1042   -1.0167    0.0000 C   0  0  0  0  0  0  0  0  0  0  0  0
  2  4  1  0
  3  5  1  0
  4  6  1  0
  5  1  1  0
  6  1  1  0
  7 13  1  0
  8  3  1  0
  9  6  1  0
 10  1  1  0
 11  2  2  0
 12  4  2  0
 13 10  1  0
 14  8  2  0
 15  8  1  0
 16 12  1  0
 17 16  2  0
 18 15  2  0
 19 14  1  0
 20 18  1  0
  9  7  1  0
  3  2  1  0
 17 11  1  0
 19 20  2  0
M  END

> <chembl_id>
CHEMBL6445

> <chembl_pref_name>
None

$$$$

     RDKit          2D

 29 31  0  0  0  0  0  0  0  0999 V2000
    3.0750   -7.3917    0.0000 C   0  0  0  0  0  0  0  0  0  0  0  0
    2.5917   -7.7417    0.0000 N   0  0  0  0  0  0  0  0  0  0  0  0
    3.5625   -7.7417    0.0000 O   0  0  0  0  0  0  0  0  0  0  0  0
    0.3250   -6.9667    0.0000 C   0  0  0  0  0  0  0  0  0  0  0  0
   -0.7875   -6.2167    0.0000 C   0  0  0  0  0  0  0  0  0  0  0  0
    0.2750   -6.3792    0.0000 C   0  0  0  0  0  0  0  0  0  0  0  0
   -0.1208   -7.3792    0.0000 C   0  0  0  0  0  0  0  0  0  0  0  0
   -0.2208   -6.0417    0.0000 C   0  0  0  0  0  0  0  0  0  0  0  0
   -1.0000   -6.7792    0.0000 C   0  0  0  0  0  0  0  0  0  0  0  0
   -0.7083   -7.3000    0.0000 C   0  0  0  0  0  0  0  0  0  0  0  0
    2.0250   -7.5542    0.0000 C   0  0  0  0  0  0  0  0  0  0  0  0
    3.3750   -8.3167    0.0000 C   0  0  0  0  0  0  0  0  0  0  0  0
    2.7750   -8.3167    0.0000 C   0  0  0  0  0  0  0  0  0  0  0  0
    3.0750   -6.7917    0.0000 O   0  0  0  0  0  0  0  0  0  0  0  0
    3.8375   -9.8292    0.0000 C   0  0  0  0  0  0  0  0  0  0  0  0
    0.8792   -7.1875    0.0000 C   0  0  0  0  0  0  0  0  0  0  0  0
    3.4875   -9.3500    0.0000 N   0  0  0  0  0  0  0  0  0  0  0  0
   -1.6083   -6.8417    0.0000 O   0  0  0  0  0  0  0  0  0  0  0  0
    3.5917  -10.3792    0.0000 O   0  0  0  0  0  0  0  0  0  0  0  0
    1.9000   -6.9667    0.0000 C   0  0  0  0  0  0  0  0  0  0  0  0
    1.5792   -7.9542    0.0000 C   0  0  0  0  0  0  0  0  0  0  0  0
    1.0042   -7.7750    0.0000 C   0  0  0  0  0  0  0  0  0  0  0  0
    1.3292   -6.7792    0.0000 C   0  0  0  0  0  0  0  0  0  0  0  0
   -1.1958   -5.7792    0.0000 N   0  0  0  0  0  0  0  0  0  0  0  0
   -1.4333   -4.7750    0.0000 C   0  0  0  0  0  0  0  0  0  0  0  0
    3.7292   -8.8000    0.0000 C   0  0  0  0  0  0  0  0  0  0  0  0
   -1.2625   -4.1917    0.0000 C   0  0  0  0  0  0  0  0  0  0  0  0
   -1.0208   -5.2125    0.0000 C   0  0  0  0  0  0  0  0  0  0  0  0
    4.4292   -9.7667    0.0000 C   0  0  0  0  0  0  0  0  0  0  0  0
  2  1  1  0
  3  1  1  0
  4 16  1  0
  5  8  2  0
  6  4  2  0
  7  4  1  0
  8  6  1  0
  9 10  1  0
 10  7  2  0
 11  2  1  0
 12  3  1  0
 13  2  1  0
 14  1  2  0
 15 17  1  0
 16 22  1  0
 17 26  1  0
 18  9  2  0
 19 15  2  0
 20 11  2  0
 21 11  1  0
 22 21  2  0
 23 20  1  0
 24  5  1  0
 25 28  1  0
 26 12  1  0
 27 25  2  0
 28 24  1  0
 29 15  1  0
 13 12  1  0
 23 16  2  0
  5  9  1  0
M  END

> <chembl_id>
CHEMBL6519

> <chembl_pref_name>
None

$$$$

     RDKit          2D

 29 31  0  0  0  0  0  0  0  0999 V2000
    1.5542   -3.1167    0.0000 C   0  0  0  0  0  0  0  0  0  0  0  0
    2.2667   -3.5292    0.0000 C   0  0  0  0  0  0  0  0  0  0  0  0
    0.8625   -3.5167    0.0000 N   0  0  0  0  0  0  0  0  0  0  0  0
    1.5542   -4.7542    0.0000 N   0  0  0  0  0  0  0  0  0  0  0  0
    2.2667   -4.3417    0.0000 C   0  0  0  0  0  0  0  0  0  0  0  0
    0.8500   -4.3417    0.0000 C   0  0  0  0  0  0  0  0  0  0  0  0
    7.9792   -1.8542    0.0000 C   0  0  0  0  0  0  0  0  0  0  0  0
    5.1167   -3.5042    0.0000 N   0  0  0  0  0  0  0  0  0  0  0  0
    5.8167   -4.7792    0.0000 C   0  0  0  0  0  0  0  0  0  0  0  0
    6.5167   -5.2167    0.0000 C   0  0  0  0  0  0  0  0  0  0  0  0
    2.9792   -3.1042    0.0000 C   0  0  0  0  0  0  0  0  0  0  0  0
    7.2667   -2.2667    0.0000 C   0  0  0  0  0  0  0  0  0  0  0  0
    5.8417   -3.0917    0.0000 C   0  0  0  0  0  0  0  0  0  0  0  0
    1.5667   -2.2917    0.0000 O   0  0  0  0  0  0  0  0  0  0  0  0
    4.4042   -3.1042    0.0000 C   0  0  0  0  0  0  0  0  0  0  0  0
    3.6917   -3.5167    0.0000 C   0  0  0  0  0  0  0  0  0  0  0  0
    7.9667   -1.0292    0.0000 O   0  0  0  0  0  0  0  0  0  0  0  0
    2.9792   -4.7542    0.0000 C   0  0  0  0  0  0  0  0  0  0  0  0
    7.2667   -3.0917    0.0000 C   0  0  0  0  0  0  0  0  0  0  0  0
    6.5417   -1.8542    0.0000 C   0  0  0  0  0  0  0  0  0  0  0  0
    6.5542   -3.5042    0.0000 C   0  0  0  0  0  0  0  0  0  0  0  0
    5.8292   -2.2792    0.0000 C   0  0  0  0  0  0  0  0  0  0  0  0
    8.6917   -2.2542    0.0000 N   0  0  0  0  0  0  0  0  0  0  0  0
    5.1167   -4.3292    0.0000 C   0  0  0  0  0  0  0  0  0  0  0  0
    3.6917   -4.3417    0.0000 C   0  0  0  0  0  0  0  0  0  0  0  0
    0.1375   -4.7417    0.0000 C   0  0  0  0  0  0  0  0  0  0  0  0
    9.4042   -1.8417    0.0000 C   0  0  0  0  0  0  0  0  0  0  0  0
    9.3917   -1.0167    0.0000 C   0  0  0  0  0  0  0  0  0  0  0  0
   10.1042   -0.6042    0.0000 C   0  0  0  0  0  0  0  0  0  0  0  0
  2  1  1  0
  3  1  2  0
  4  6  2  0
  5  2  2  0
  6  3  1  0
  7 12  1  0
  8 15  1  0
  9 24  1  0
 10  9  3  0
 11  2  1  0
 12 20  1  0
 13  8  1  0
 14  1  1  0
 15 16  1  0
 16 11  2  0
 17  7  2  0
 18  5  1  0
 19 21  1  0
 20 22  2  0
 21 13  2  0
 22 13  1  0
 23  7  1  0
 24  8  1  0
 25 16  1  0
 26  6  1  0
 27 23  1  0
 28 27  1  0
 29 28  1  0
  4  5  1  0
 25 18  2  0
 12 19  2  0
M  END

> <chembl_id>
CHEMBL265410

> <chembl_pref_name>
None

$$$$

     RDKit          2D

 36 39  0  0  0  0  0  0  0  0999 V2000
    0.8417   -3.7375    0.0000 C   0  0  0  0  0  0  0  0  0  0  0  0
    1.5417   -4.1500    0.0000 C   0  0  0  0  0  0  0  0  0  0  0  0
    0.1167   -4.1292    0.0000 N   0  0  0  0  0  0  0  0  0  0  0  0
   10.1000   -1.6375    0.0000 N   0  0  0  0  0  0  0  0  0  0  0  0
    0.8292   -5.3750    0.0000 N   0  0  0  0  0  0  0  0  0  0  0  0
    1.5417   -4.9667    0.0000 C   0  0  0  0  0  0  0  0  0  0  0  0
    0.1167   -4.9625    0.0000 C   0  0  0  0  0  0  0  0  0  0  0  0
    9.3792   -1.2250    0.0000 C   0  0  0  0  0  0  0  0  0  0  0  0
    7.2417   -2.4750    0.0000 C   0  0  0  0  0  0  0  0  0  0  0  0
    4.3917   -4.1292    0.0000 N   0  0  0  0  0  0  0  0  0  0  0  0
    7.9542   -2.8792    0.0000 N   0  0  0  0  0  0  0  0  0  0  0  0
    5.0875   -5.4000    0.0000 C   0  0  0  0  0  0  0  0  0  0  0  0
    5.7917   -5.8417    0.0000 C   0  0  0  0  0  0  0  0  0  0  0  0
    8.6625   -1.6417    0.0000 C   0  0  0  0  0  0  0  0  0  0  0  0
    2.2542   -3.7250    0.0000 C   0  0  0  0  0  0  0  0  0  0  0  0
   10.1000   -2.4625    0.0000 O   0  0  0  0  0  0  0  0  0  0  0  0
   10.8125   -1.2250    0.0000 O   0  0  0  0  0  0  0  0  0  0  0  0
    6.5292   -2.8875    0.0000 C   0  0  0  0  0  0  0  0  0  0  0  0
    5.1000   -3.7167    0.0000 C   0  0  0  0  0  0  0  0  0  0  0  0
    0.8417   -2.9125    0.0000 O   0  0  0  0  0  0  0  0  0  0  0  0
    3.6750   -3.7250    0.0000 C   0  0  0  0  0  0  0  0  0  0  0  0
    8.6667   -2.4667    0.0000 C   0  0  0  0  0  0  0  0  0  0  0  0
    2.9667   -4.1292    0.0000 C   0  0  0  0  0  0  0  0  0  0  0  0
    7.2375   -1.6500    0.0000 O   0  0  0  0  0  0  0  0  0  0  0  0
    2.2542   -5.3792    0.0000 C   0  0  0  0  0  0  0  0  0  0  0  0
    5.8125   -2.4792    0.0000 C   0  0  0  0  0  0  0  0  0  0  0  0
    6.5292   -3.7125    0.0000 C   0  0  0  0  0  0  0  0  0  0  0  0
    5.1000   -2.9000    0.0000 C   0  0  0  0  0  0  0  0  0  0  0  0
    5.8167   -4.1292    0.0000 C   0  0  0  0  0  0  0  0  0  0  0  0
    4.3917   -4.9542    0.0000 C   0  0  0  0  0  0  0  0  0  0  0  0
    2.9667   -4.9667    0.0000 C   0  0  0  0  0  0  0  0  0  0  0  0
   -0.5958   -5.3667    0.0000 C   0  0  0  0  0  0  0  0  0  0  0  0
    9.3750   -0.4000    0.0000 C   0  0  0  0  0  0  0  0  0  0  0  0
    7.9500   -1.2375    0.0000 C   0  0  0  0  0  0  0  0  0  0  0  0
    8.6625    0.0125    0.0000 C   0  0  0  0  0  0  0  0  0  0  0  0
    7.9417   -0.4125    0.0000 C   0  0  0  0  0  0  0  0  0  0  0  0
  2  1  1  0
  3  1  2  0
  4  8  1  0
  5  7  2  0
  6  2  2  0
  7  3  1  0
  8 14  2  0
  9 18  1  0
 10 21  1  0
 11  9  1  0
 12 30  1  0
 13 12  3  0
 14 22  1  0
 15  2  1  0
 16  4  1  0
 17  4  2  0
 18 27  2  0
 19 10  1  0
 20  1  1  0
 21 23  1  0
 22 11  1  0
 23 15  2  0
 24  9  2  0
 25  6  1  0
 26 28  2  0
 27 29  1  0
 28 19  1  0
 29 19  2  0
 30 10  1  0
 31 23  1  0
 32  7  1  0
 33  8  1  0
 34 14  1  0
 35 36  1  0
 36 34  2  0
  5  6  1  0
 31 25  2  0
 26 18  1  0
 35 33  2  0
M  CHG  2   4   1  16  -1
M  END

> <chembl_id>
CHEMBL266065

> <chembl_pref_name>
None

$$$$

     RDKit          2D

 23 25  0  0  0  0  0  0  0  0999 V2000
    5.4500   -3.5917    0.0000 C   0  0  0  0  0  0  0  0  0  0  0  0
    4.0292   -3.5917    0.0000 N   0  0  0  0  0  0  0  0  0  0  0  0
    6.1667   -3.1792    0.0000 C   0  0  0  0  0  0  0  0  0  0  0  0
    4.0292   -4.4167    0.0000 N   0  0  0  0  0  0  0  0  0  0  0  0
    5.4500   -4.4167    0.0000 C   0  0  0  0  0  0  0  0  0  0  0  0
    4.7375   -3.1750    0.0000 C   0  0  0  0  0  0  0  0  0  0  0  0
    4.7375   -4.8250    0.0000 C   0  0  0  0  0  0  0  0  0  0  0  0
    6.8792   -3.5917    0.0000 N   0  0  0  0  0  0  0  0  0  0  0  0
    6.1667   -2.3542    0.0000 O   0  0  0  0  0  0  0  0  0  0  0  0
    4.7375   -7.2917    0.0000 N   0  0  0  0  0  0  0  0  0  0  0  0
    4.7375   -5.6500    0.0000 C   0  0  0  0  0  0  0  0  0  0  0  0
    4.7375   -2.3500    0.0000 Cl  0  0  0  0  0  0  0  0  0  0  0  0
    7.5917   -3.1792    0.0000 C   0  0  0  0  0  0  0  0  0  0  0  0
    8.3042   -3.6000    0.0000 C   0  0  0  0  0  0  0  0  0  0  0  0
    4.0167   -6.8792    0.0000 C   0  0  0  0  0  0  0  0  0  0  0  0
    5.4542   -6.8792    0.0000 C   0  0  0  0  0  0  0  0  0  0  0  0
    4.0167   -6.0542    0.0000 C   0  0  0  0  0  0  0  0  0  0  0  0
    5.4500   -6.0542    0.0000 C   0  0  0  0  0  0  0  0  0  0  0  0
    8.3042   -4.4250    0.0000 C   0  0  0  0  0  0  0  0  0  0  0  0
    9.0167   -3.1875    0.0000 C   0  0  0  0  0  0  0  0  0  0  0  0
    9.7292   -3.6000    0.0000 C   0  0  0  0  0  0  0  0  0  0  0  0
    9.0167   -4.8375    0.0000 C   0  0  0  0  0  0  0  0  0  0  0  0
    9.7292   -4.4292    0.0000 C   0  0  0  0  0  0  0  0  0  0  0  0
  2  6  2  0
  3  1  1  0
  4  2  1  0
  5  1  2  0
  6  1  1  0
  7  5  1  0
  8  3  1  0
  9  3  2  0
 10 16  1  0
 11  7  1  0
 12  6  1  0
 13  8  1  0
 14 13  1  0
 15 17  1  0
 16 18  2  0
 17 11  2  0
 18 11  1  0
 19 14  2  0
 20 14  1  0
 21 20  2  0
 22 19  1  0
 23 21  1  0
  7  4  2  0
 15 10  2  0
 22 23  2  0
M  END

> <chembl_id>
CHEMBL6551

> <chembl_pref_name>
None

$$$$

     RDKit          2D

 18 19  0  0  0  0  0  0  0  0999 V2000
   -3.8681    1.3902    0.0000 C   0  0  0  0  0  0  0  0  0  0  0  0
   -3.8692    0.5637    0.0000 C   0  0  0  0  0  0  0  0  0  0  0  0
   -3.1552    0.1513    0.0000 C   0  0  0  0  0  0  0  0  0  0  0  0
   -3.1570    1.8026    0.0000 C   0  0  0  0  0  0  0  0  0  0  0  0
   -3.1595    2.6267    0.0000 O   0  0  0  0  0  0  0  0  0  0  0  0
   -2.4424    1.3938    0.0000 C   0  0  0  0  0  0  0  0  0  0  0  0
   -2.4390    0.5617    0.0000 C   0  0  0  0  0  0  0  0  0  0  0  0
   -1.7205    0.1508    0.0000 C   0  0  0  0  0  0  0  0  0  0  0  0
   -1.0009    0.5676    0.0000 C   0  0  0  0  0  0  0  0  0  0  0  0
   -1.0044    1.3997    0.0000 C   0  0  0  0  0  0  0  0  0  0  0  0
   -1.7274    1.8151    0.0000 C   0  0  0  0  0  0  0  0  0  0  0  0
   -0.2861    0.1574    0.0000 N   0  0  0  0  0  0  0  0  0  0  0  0
   -0.2839   -0.6667    0.0000 C   0  0  0  0  0  0  0  0  0  0  0  0
    0.4264    0.5715    0.0000 C   0  0  0  0  0  0  0  0  0  0  0  0
    1.1413    0.1613    0.0000 C   0  0  0  0  0  0  0  0  0  0  0  0
    1.8538    0.5753    0.0000 C   0  0  0  0  0  0  0  0  0  0  0  0
    0.4309   -1.0767    0.0000 C   0  0  0  0  0  0  0  0  0  0  0  0
    0.4331   -1.9008    0.0000 C   0  0  0  0  0  0  0  0  0  0  0  0
  6 11  1  0
  7  8  1  0
  8  9  1  0
  9 10  1  0
 10 11  1  0
  4  5  1  0
  9 12  1  6
  6  7  1  0
 12 13  1  0
  2  3  1  0
 12 14  1  0
  3  7  2  0
 14 15  1  0
  1  2  2  0
 15 16  1  0
  6  4  2  0
 13 17  1  0
  4  1  1  0
 17 18  1  0
M  END

> <chembl_id>
CHEMBL269004

> <chembl_pref_name>
None

$$$$

     RDKit          2D

 27 29  0  0  0  0  0  0  0  0999 V2000
    7.5750   -6.4042    0.0000 C   0  0  0  0  0  0  0  0  0  0  0  0
    7.0917   -6.7542    0.0000 N   0  0  0  0  0  0  0  0  0  0  0  0
    8.0625   -6.7542    0.0000 O   0  0  0  0  0  0  0  0  0  0  0  0
    4.8125   -5.9792    0.0000 C   0  0  0  0  0  0  0  0  0  0  0  0
    3.7000   -5.2292    0.0000 C   0  0  0  0  0  0  0  0  0  0  0  0
    4.7625   -5.3875    0.0000 C   0  0  0  0  0  0  0  0  0  0  0  0
    4.3750   -6.3917    0.0000 C   0  0  0  0  0  0  0  0  0  0  0  0
    4.2667   -5.0542    0.0000 C   0  0  0  0  0  0  0  0  0  0  0  0
    3.7792   -6.3042    0.0000 C   0  0  0  0  0  0  0  0  0  0  0  0
    3.4875   -5.7917    0.0000 C   0  0  0  0  0  0  0  0  0  0  0  0
    6.5250   -6.5750    0.0000 C   0  0  0  0  0  0  0  0  0  0  0  0
    7.8750   -7.3292    0.0000 C   0  0  0  0  0  0  0  0  0  0  0  0
    7.2750   -7.3292    0.0000 C   0  0  0  0  0  0  0  0  0  0  0  0
    7.5750   -5.8042    0.0000 O   0  0  0  0  0  0  0  0  0  0  0  0
    8.3375   -8.8500    0.0000 C   0  0  0  0  0  0  0  0  0  0  0  0
    5.3792   -6.2042    0.0000 C   0  0  0  0  0  0  0  0  0  0  0  0
    7.9875   -8.3667    0.0000 N   0  0  0  0  0  0  0  0  0  0  0  0
    2.8792   -5.8500    0.0000 O   0  0  0  0  0  0  0  0  0  0  0  0
    8.0917   -9.4000    0.0000 O   0  0  0  0  0  0  0  0  0  0  0  0
    6.0792   -6.9750    0.0000 C   0  0  0  0  0  0  0  0  0  0  0  0
    6.4000   -5.9875    0.0000 C   0  0  0  0  0  0  0  0  0  0  0  0
    5.8292   -5.8000    0.0000 C   0  0  0  0  0  0  0  0  0  0  0  0
    5.5042   -6.7917    0.0000 C   0  0  0  0  0  0  0  0  0  0  0  0
    8.2292   -7.8167    0.0000 C   0  0  0  0  0  0  0  0  0  0  0  0
    3.2917   -4.7875    0.0000 O   0  0  0  0  0  0  0  0  0  0  0  0
    8.9292   -8.7875    0.0000 C   0  0  0  0  0  0  0  0  0  0  0  0
    2.7167   -4.9125    0.0000 C   0  0  0  0  0  0  0  0  0  0  0  0
  2  1  1  0
  3  1  1  0
  4 16  1  0
  5  8  2  0
  6  4  2  0
  7  4  1  0
  8  6  1  0
  9  7  2  0
 10  9  1  0
 11  2  1  0
 12  3  1  0
 13  2  1  0
 14  1  2  0
 15 17  1  0
 16 22  2  0
 17 24  1  0
 18 10  2  0
 19 15  2  0
 20 11  1  0
 21 11  2  0
 22 21  1  0
 23 20  2  0
 24 12  1  0
 25  5  1  0
 26 15  1  0
 27 25  1  0
 13 12  1  0
 23 16  1  0
  5 10  1  0
M  END

> <chembl_id>
CHEMBL6476

> <chembl_pref_name>
None

$$$$

     RDKit          2D

 13 14  0  0  0  0  0  0  0  0999 V2000
    4.9125   -5.0667    0.0000 C   0  0  0  0  0  0  0  0  0  0  0  0
    5.6250   -5.4792    0.0000 N   0  0  0  0  0  0  0  0  0  0  0  0
    5.6292   -3.8292    0.0000 C   0  0  0  0  0  0  0  0  0  0  0  0
    6.3417   -5.0750    0.0000 C   0  0  0  0  0  0  0  0  0  0  0  0
    4.9167   -4.2417    0.0000 C   0  0  0  0  0  0  0  0  0  0  0  0
    6.3417   -4.2500    0.0000 C   0  0  0  0  0  0  0  0  0  0  0  0
    4.2042   -5.4792    0.0000 C   0  0  0  0  0  0  0  0  0  0  0  0
    4.2042   -3.8292    0.0000 C   0  0  0  0  0  0  0  0  0  0  0  0
    7.0500   -5.4917    0.0000 O   0  0  0  0  0  0  0  0  0  0  0  0
    3.4917   -5.0667    0.0000 C   0  0  0  0  0  0  0  0  0  0  0  0
    3.4917   -4.2417    0.0000 C   0  0  0  0  0  0  0  0  0  0  0  0
    2.7792   -5.4792    0.0000 N   0  0  0  0  0  0  0  0  0  0  0  0
    5.6292   -3.0042    0.0000 C   0  0  0  0  0  0  0  0  0  0  0  0
  2  1  2  0
  3  5  2  0
  4  2  1  0
  5  1  1  0
  6  3  1  0
  7  1  1  0
  8  5  1  0
  9  4  1  0
 10  7  2  0
 11 10  1  0
 12 10  1  0
 13  3  1  0
 11  8  2  0
  4  6  2  0
M  END

> <chembl_id>
CHEMBL266430

> <chembl_pref_name>
None

$$$$

     RDKit          2D

 13 14  0  0  0  0  0  0  0  0999 V2000
    4.9125   -5.0667    0.0000 C   0  0  0  0  0  0  0  0  0  0  0  0
    5.6250   -5.4792    0.0000 N   0  0  0  0  0  0  0  0  0  0  0  0
    5.6292   -3.8292    0.0000 C   0  0  0  0  0  0  0  0  0  0  0  0
    6.3417   -5.0750    0.0000 C   0  0  0  0  0  0  0  0  0  0  0  0
    4.9167   -4.2417    0.0000 C   0  0  0  0  0  0  0  0  0  0  0  0
    6.3417   -4.2500    0.0000 C   0  0  0  0  0  0  0  0  0  0  0  0
    4.2042   -5.4792    0.0000 C   0  0  0  0  0  0  0  0  0  0  0  0
    4.2042   -3.8292    0.0000 C   0  0  0  0  0  0  0  0  0  0  0  0
    7.0500   -5.4917    0.0000 O   0  0  0  0  0  0  0  0  0  0  0  0
    3.4917   -5.0667    0.0000 C   0  0  0  0  0  0  0  0  0  0  0  0
    3.4917   -4.2417    0.0000 C   0  0  0  0  0  0  0  0  0  0  0  0
    5.6292   -3.0042    0.0000 C   0  0  0  0  0  0  0  0  0  0  0  0
    2.7792   -5.4792    0.0000 O   0  0  0  0  0  0  0  0  0  0  0  0
  2  1  2  0
  3  5  2  0
  4  2  1  0
  5  1  1  0
  6  3  1  0
  7  1  1  0
  8  5  1  0
  9  4  1  0
 10  7  2  0
 11 10  1  0
 12  3  1  0
 13 10  1  0
  8 11  2  0
  4  6  2  0
M  END

> <chembl_id>
CHEMBL6703

> <chembl_pref_name>
None

$$$$

     RDKit          2D

 39 43  0  0  1  0  0  0  0  0999 V2000
    4.1250   -1.4792    0.0000 C   0  0  0  0  0  0  0  0  0  0  0  0
    4.1250   -2.0792    0.0000 C   0  0  0  0  0  0  0  0  0  0  0  0
    3.6000   -2.3792    0.0000 C   0  0  0  0  0  0  0  0  0  0  0  0
    3.6042   -1.1792    0.0000 C   0  0  0  0  0  0  0  0  0  0  0  0
    5.1542   -2.0792    0.0000 C   0  0  0  0  0  0  0  0  0  0  0  0
    5.1542   -1.4875    0.0000 C   0  0  0  0  0  0  0  0  0  0  0  0
    3.0792   -2.0792    0.0000 C   0  0  0  0  0  0  0  0  0  0  0  0
    4.6417   -1.1792    0.0000 C   0  0  0  0  0  0  0  0  0  0  0  0
    4.6292   -2.3792    0.0000 C   0  0  0  0  0  0  0  0  0  0  0  0
    3.0875   -1.4792    0.0000 C   0  0  0  0  0  0  0  0  0  0  0  0
    6.1917   -1.4917    0.0000 C   0  0  0  0  0  0  0  0  0  0  0  0
    5.6667   -2.3792    0.0000 C   0  0  0  0  0  0  0  0  0  0  0  0
    5.6750   -1.1917    0.0000 C   0  0  0  0  0  0  0  0  0  0  0  0
    5.6542   -3.5792    0.0000 C   0  0  0  0  0  0  0  0  0  0  0  0
    5.1125   -3.7667    0.0000 O   0  0  0  0  0  0  0  0  0  0  0  0
    6.1875   -2.0917    0.0000 C   0  0  0  0  0  0  0  0  0  0  0  0
    5.5542   -4.3000    0.0000 C   0  0  0  0  0  0  0  0  0  0  0  0
    4.9792   -4.1417    0.0000 C   0  0  0  0  0  0  0  0  0  0  0  0
    4.3917   -4.3000    0.0000 C   0  0  0  0  0  0  0  0  0  0  0  0
    4.5542   -3.7167    0.0000 C   0  0  0  0  0  0  0  0  0  0  0  0
    6.6125   -1.0667    0.0000 C   0  0  0  0  0  0  0  0  0  0  0  0
    5.6625   -2.9792    0.0000 O   0  0  0  0  0  0  0  0  0  0  0  0
    4.8167   -4.7167    0.0000 N   0  0  0  0  0  0  0  0  0  0  0  0
    3.6042   -0.5792    0.0000 O   0  0  0  0  0  0  0  0  0  0  0  0
    3.6000   -2.9792    0.0000 O   0  0  0  0  0  0  0  0  0  0  0  0
    2.5667   -2.3750    0.0000 C   0  0  0  0  0  0  0  0  0  0  0  0
    6.4542   -0.4875    0.0000 O   0  0  0  0  0  0  0  0  0  0  0  0
    4.6417   -0.5792    0.0000 O   0  0  0  0  0  0  0  0  0  0  0  0
    4.6292   -2.9792    0.0000 O   0  0  0  0  0  0  0  0  0  0  0  0
    6.7042   -1.7917    0.0000 O   0  0  0  0  0  0  0  0  0  0  0  0
    3.8125   -4.4542    0.0000 O   0  0  0  0  0  0  0  0  0  0  0  0
    2.5667   -1.1750    0.0000 C   0  0  0  0  0  0  0  0  0  0  0  0
    2.5667   -2.9750    0.0000 O   0  0  0  0  0  0  0  0  0  0  0  0
    7.1917   -1.2167    0.0000 C   0  0  0  0  0  0  0  0  0  0  0  0
    7.6125   -0.7917    0.0000 O   0  0  0  0  0  0  0  0  0  0  0  0
    3.9750   -3.8750    0.0000 C   0  0  0  0  0  0  0  0  0  0  0  0
    2.0500   -1.4792    0.0000 C   0  0  0  0  0  0  0  0  0  0  0  0
    2.0500   -2.0792    0.0000 C   0  0  0  0  0  0  0  0  0  0  0  0
    2.1292   -3.4000    0.0000 C   0  0  0  0  0  0  0  0  0  0  0  0
  2  1  2  0
  3  2  1  0
  4  1  1  0
  5  6  1  0
  6  8  2  0
  7 10  2  0
  8  1  1  0
  9  2  1  0
 10  4  1  0
 11 13  1  0
 12  5  1  0
 13  6  1  0
 14 22  1  0
 15 14  1  0
 16 11  1  0
 17 14  1  0
 18 17  1  0
 19 18  1  0
 20 15  1  0
 11 21  1  1
 12 22  1  6
 23 18  1  0
 24  4  2  0
 25  3  2  0
 26  7  1  0
 27 21  2  0
 28  8  1  0
 29  9  1  0
 11 30  1  6
 31 19  1  0
 32 10  1  0
 33 26  1  0
 34 21  1  0
 35 34  1  0
 36 20  1  0
 37 32  2  0
 38 37  1  0
 39 33  1  0
  9  5  2  0
  3  7  1  0
 16 12  1  0
 38 26  2  0
 20 19  1  0
M  END

> <chembl_id>
CHEMBL6608

> <chembl_pref_name>
None

$$$$

     RDKit          2D

 27 29  0  0  1  0  0  0  0  0999 V2000
    4.7500   -5.2917    0.0000 N   0  0  0  0  0  0  0  0  0  0  0  0
    3.3292   -5.2917    0.0000 C   0  0  0  0  0  0  0  0  0  0  0  0
    4.0375   -4.8792    0.0000 C   0  0  0  0  0  0  0  0  0  0  0  0
    4.7417   -6.1167    0.0000 C   0  0  0  0  0  0  0  0  0  0  0  0
    5.4667   -4.8875    0.0000 C   0  0  0  0  0  0  0  0  0  0  0  0
    3.3375   -6.1042    0.0000 C   0  0  0  0  0  0  0  0  0  0  0  0
    2.6167   -4.8792    0.0000 C   0  0  0  0  0  0  0  0  0  0  0  0
    1.9125   -5.2917    0.0000 O   0  0  0  0  0  0  0  0  0  0  0  0
    4.0417   -4.0542    0.0000 C   0  0  0  0  0  0  0  0  0  0  0  0
    5.4667   -4.0625    0.0000 C   0  0  0  0  0  0  0  0  0  0  0  0
    1.9125   -6.1125    0.0000 C   0  0  0  0  0  0  0  0  0  0  0  0
    2.6250   -6.5167    0.0000 C   0  0  0  0  0  0  0  0  0  0  0  0
    4.7542   -3.6417    0.0000 C   0  0  0  0  0  0  0  0  0  0  0  0
    5.4542   -6.5375    0.0000 O   0  0  0  0  0  0  0  0  0  0  0  0
    3.3292   -3.6417    0.0000 C   0  0  0  0  0  0  0  0  0  0  0  0
    4.0250   -6.5292    0.0000 O   0  0  0  0  0  0  0  0  0  0  0  0
    6.1750   -5.3042    0.0000 O   0  0  0  0  0  0  0  0  0  0  0  0
    2.6167   -4.0542    0.0000 C   0  0  0  0  0  0  0  0  0  0  0  0
    5.4500   -7.3625    0.0000 C   0  0  0  0  0  0  0  0  0  0  0  0
    3.3292   -6.9292    0.0000 O   0  0  0  0  0  0  0  0  0  0  0  0
    2.6250   -7.3417    0.0000 O   0  0  0  0  0  0  0  0  0  0  0  0
    4.7542   -2.8167    0.0000 C   0  0  0  0  0  0  0  0  0  0  0  0
    1.1125   -5.8917    0.0000 C   0  0  0  0  0  0  0  0  0  0  0  0
    1.4917   -6.8250    0.0000 C   0  0  0  0  0  0  0  0  0  0  0  0
    6.0375   -6.7792    0.0000 C   0  0  0  0  0  0  0  0  0  0  0  0
    6.1625   -7.7792    0.0000 C   0  0  0  0  0  0  0  0  0  0  0  0
    4.7292   -7.7667    0.0000 C   0  0  0  0  0  0  0  0  0  0  0  0
  2  3  2  0
  3  1  1  0
  4  1  1  0
  5  1  1  0
  6  2  1  0
  7  2  1  0
  8  7  1  0
  9  3  1  0
 10  5  1  0
 11  8  1  0
 12  6  1  0
 13 10  2  0
 14  4  1  0
 15  9  2  0
 16  4  2  0
 17  5  2  0
 18 15  1  0
 19 14  1  0
  6 20  1  1
 12 21  1  1
 22 13  1  0
 23 11  1  0
 24 11  1  0
 25 19  1  0
 26 19  1  0
 27 19  1  0
  9 13  1  0
 18  7  2  0
 11 12  1  0
M  END

> <chembl_id>
CHEMBL269573

> <chembl_pref_name>
None

$$$$

     RDKit          2D

 18 20  0  0  0  0  0  0  0  0999 V2000
    4.9125   -5.0667    0.0000 C   0  0  0  0  0  0  0  0  0  0  0  0
    4.2042   -5.4792    0.0000 C   0  0  0  0  0  0  0  0  0  0  0  0
    5.6250   -5.4792    0.0000 N   0  0  0  0  0  0  0  0  0  0  0  0
    4.9167   -4.2417    0.0000 C   0  0  0  0  0  0  0  0  0  0  0  0
    5.6292   -3.8292    0.0000 C   0  0  0  0  0  0  0  0  0  0  0  0
    6.3417   -5.0750    0.0000 C   0  0  0  0  0  0  0  0  0  0  0  0
    3.4917   -5.0667    0.0000 C   0  0  0  0  0  0  0  0  0  0  0  0
    4.2125   -6.2917    0.0000 C   0  0  0  0  0  0  0  0  0  0  0  0
    6.3417   -4.2500    0.0000 C   0  0  0  0  0  0  0  0  0  0  0  0
    2.7875   -5.4792    0.0000 O   0  0  0  0  0  0  0  0  0  0  0  0
    3.5000   -6.7042    0.0000 C   0  0  0  0  0  0  0  0  0  0  0  0
    2.7875   -6.3000    0.0000 C   0  0  0  0  0  0  0  0  0  0  0  0
    4.2042   -3.8292    0.0000 C   0  0  0  0  0  0  0  0  0  0  0  0
    3.4917   -4.2417    0.0000 C   0  0  0  0  0  0  0  0  0  0  0  0
    7.0500   -5.4917    0.0000 O   0  0  0  0  0  0  0  0  0  0  0  0
    5.6292   -3.0042    0.0000 C   0  0  0  0  0  0  0  0  0  0  0  0
    1.9875   -6.0792    0.0000 C   0  0  0  0  0  0  0  0  0  0  0  0
    2.3667   -7.0125    0.0000 C   0  0  0  0  0  0  0  0  0  0  0  0
  2  1  1  0
  3  1  2  0
  4  1  1  0
  5  4  2  0
  6  3  1  0
  7  2  2  0
  8  2  1  0
  9  5  1  0
 10  7  1  0
 11  8  2  0
 12 11  1  0
 13  4  1  0
 14 13  2  0
 15  6  1  0
 16  5  1  0
 17 12  1  0
 18 12  1  0
 14  7  1  0
  6  9  2  0
 10 12  1  0
M  END

> <chembl_id>
CHEMBL6392

> <chembl_pref_name>
None

$$$$

     RDKit          2D

 13 15  0  0  0  0  0  0  0  0999 V2000
   -1.2583    0.7458    0.0000 N   0  0  0  0  0  0  0  0  0  0  0  0
   -0.7958    1.4125    0.0000 C   0  0  0  0  0  0  0  0  0  0  0  0
   -1.2875    2.0833    0.0000 C   0  0  0  0  0  0  0  0  0  0  0  0
   -2.0583    0.9833    0.0000 C   0  0  0  0  0  0  0  0  0  0  0  0
   -2.0708    1.8083    0.0000 C   0  0  0  0  0  0  0  0  0  0  0  0
    0.3667    0.6125    0.0000 N   0  0  0  0  0  0  0  0  0  0  0  0
    0.0167    1.3583    0.0000 C   0  0  0  0  0  0  0  0  0  0  0  0
   -0.9083    0.0083    0.0000 C   0  0  0  0  0  0  0  0  0  0  0  0
   -2.7583    0.5500    0.0000 C   0  0  0  0  0  0  0  0  0  0  0  0
   -2.7958    2.1958    0.0000 C   0  0  0  0  0  0  0  0  0  0  0  0
   -0.0958   -0.0542    0.0000 C   0  0  0  0  0  0  0  0  0  0  0  0
   -3.4833    0.9500    0.0000 C   0  0  0  0  0  0  0  0  0  0  0  0
   -3.4958    1.7708    0.0000 C   0  0  0  0  0  0  0  0  0  0  0  0
  2  1  1  0
  3  2  2  0
  4  1  1  0
  5  4  1  0
  6 11  1  0
  7  2  1  0
  8  1  1  0
  9  4  2  0
 10  5  2  0
 11  8  1  0
 12  9  1  0
 13 12  2  0
  5  3  1  0
  7  6  1  0
 13 10  1  0
M  END

> <chembl_id>
CHEMBL6393

> <chembl_pref_name>
None

$$$$

     RDKit          2D

 15 17  0  0  0  0  0  0  0  0999 V2000
   -1.1333    0.9000    0.0000 N   0  0  0  0  0  0  0  0  0  0  0  0
   -1.9333    1.1375    0.0000 C   0  0  0  0  0  0  0  0  0  0  0  0
   -0.6708    1.5708    0.0000 C   0  0  0  0  0  0  0  0  0  0  0  0
   -1.1625    2.2333    0.0000 C   0  0  0  0  0  0  0  0  0  0  0  0
   -1.9458    1.9625    0.0000 C   0  0  0  0  0  0  0  0  0  0  0  0
   -2.6333    0.7083    0.0000 C   0  0  0  0  0  0  0  0  0  0  0  0
    0.4917    0.7708    0.0000 N   0  0  0  0  0  0  0  0  0  0  0  0
   -2.6708    2.3583    0.0000 C   0  0  0  0  0  0  0  0  0  0  0  0
   -3.3583    1.1083    0.0000 C   0  0  0  0  0  0  0  0  0  0  0  0
    0.1417    1.5125    0.0000 C   0  0  0  0  0  0  0  0  0  0  0  0
   -0.7833    0.1708    0.0000 C   0  0  0  0  0  0  0  0  0  0  0  0
   -3.3708    1.9250    0.0000 C   0  0  0  0  0  0  0  0  0  0  0  0
   -4.0708    0.6833    0.0000 O   0  0  0  0  0  0  0  0  0  0  0  0
    0.0292    0.1000    0.0000 C   0  0  0  0  0  0  0  0  0  0  0  0
   -4.0500   -0.1417    0.0000 C   0  0  0  0  0  0  0  0  0  0  0  0
  2  1  1  0
  3  1  1  0
  4  3  2  0
  5  2  1  0
  6  2  2  0
  7 14  1  0
  8  5  2  0
  9  6  1  0
 10  3  1  0
 11  1  1  0
 12  9  2  0
 13  9  1  0
 14 11  1  0
 15 13  1  0
 10  7  1  0
  5  4  1  0
 12  8  1  0
M  END

> <chembl_id>
CHEMBL6385

> <chembl_pref_name>
None

$$$$

     RDKit          2D

 15 17  0  0  0  0  0  0  0  0999 V2000
   -1.1333    0.9000    0.0000 N   0  0  0  0  0  0  0  0  0  0  0  0
   -0.6708    1.5708    0.0000 C   0  0  0  0  0  0  0  0  0  0  0  0
   -1.9333    1.1375    0.0000 C   0  0  0  0  0  0  0  0  0  0  0  0
   -1.9458    1.9625    0.0000 C   0  0  0  0  0  0  0  0  0  0  0  0
   -1.1625    2.2333    0.0000 C   0  0  0  0  0  0  0  0  0  0  0  0
   -2.6333    0.7083    0.0000 C   0  0  0  0  0  0  0  0  0  0  0  0
   -2.6708    2.3583    0.0000 C   0  0  0  0  0  0  0  0  0  0  0  0
    0.4917    0.7708    0.0000 N   0  0  0  0  0  0  0  0  0  0  0  0
    0.1417    1.5125    0.0000 C   0  0  0  0  0  0  0  0  0  0  0  0
   -3.3708    1.9250    0.0000 C   0  0  0  0  0  0  0  0  0  0  0  0
   -0.7833    0.1708    0.0000 C   0  0  0  0  0  0  0  0  0  0  0  0
   -3.3583    1.1083    0.0000 C   0  0  0  0  0  0  0  0  0  0  0  0
   -4.0958    2.3333    0.0000 O   0  0  0  0  0  0  0  0  0  0  0  0
    0.0292    0.1000    0.0000 C   0  0  0  0  0  0  0  0  0  0  0  0
   -4.8083    1.9000    0.0000 C   0  0  0  0  0  0  0  0  0  0  0  0
  2  1  1  0
  3  1  1  0
  4  3  1  0
  5  2  2  0
  6  3  2  0
  7  4  2  0
  8 14  1  0
  9  2  1  0
 10 12  2  0
 11  1  1  0
 12  6  1  0
 13 10  1  0
 14 11  1  0
 15 13  1  0
  9  8  1  0
  4  5  1  0
 10  7  1  0
M  END

> <chembl_id>
CHEMBL269073

> <chembl_pref_name>
None

$$$$

     RDKit          2D

 13 15  0  0  0  0  0  0  0  0999 V2000
   -1.5708    0.1708    0.0000 N   0  0  0  0  0  0  0  0  0  0  0  0
   -1.5708    1.5125    0.0000 N   0  0  0  0  0  0  0  0  0  0  0  0
   -1.0708    0.8458    0.0000 C   0  0  0  0  0  0  0  0  0  0  0  0
   -2.3583    1.2583    0.0000 C   0  0  0  0  0  0  0  0  0  0  0  0
   -2.3583    0.4250    0.0000 C   0  0  0  0  0  0  0  0  0  0  0  0
    0.0875    1.6958    0.0000 N   0  0  0  0  0  0  0  0  0  0  0  0
   -0.2500    0.9333    0.0000 C   0  0  0  0  0  0  0  0  0  0  0  0
   -1.2333    2.2750    0.0000 C   0  0  0  0  0  0  0  0  0  0  0  0
   -3.0708    1.6708    0.0000 C   0  0  0  0  0  0  0  0  0  0  0  0
   -3.0708    0.0125    0.0000 C   0  0  0  0  0  0  0  0  0  0  0  0
   -0.4083    2.3625    0.0000 C   0  0  0  0  0  0  0  0  0  0  0  0
   -3.7833    1.2500    0.0000 C   0  0  0  0  0  0  0  0  0  0  0  0
   -3.7833    0.4250    0.0000 C   0  0  0  0  0  0  0  0  0  0  0  0
  2  3  1  0
  3  1  2  0
  4  5  1  0
  5  1  1  0
  6  7  1  0
  7  3  1  0
  8  2  1  0
  9  4  2  0
 10  5  2  0
 11  6  1  0
 12 13  2  0
 13 10  1  0
  4  2  1  0
 12  9  1  0
  8 11  1  0
M  END

> <chembl_id>
CHEMBL6503

> <chembl_pref_name>
None

$$$$

     RDKit          2D

 25 27  0  0  0  0  0  0  0  0999 V2000
    5.6250   -5.4792    0.0000 N   0  0  0  0  0  0  0  0  0  0  0  0
    5.6167   -6.3042    0.0000 C   0  0  0  0  0  0  0  0  0  0  0  0
    6.3417   -5.0750    0.0000 C   0  0  0  0  0  0  0  0  0  0  0  0
    4.9125   -5.0667    0.0000 C   0  0  0  0  0  0  0  0  0  0  0  0
    4.2042   -5.4792    0.0000 C   0  0  0  0  0  0  0  0  0  0  0  0
    6.3417   -4.2500    0.0000 C   0  0  0  0  0  0  0  0  0  0  0  0
    4.9167   -4.2417    0.0000 C   0  0  0  0  0  0  0  0  0  0  0  0
    5.6292   -3.8292    0.0000 C   0  0  0  0  0  0  0  0  0  0  0  0
    3.4917   -5.0667    0.0000 C   0  0  0  0  0  0  0  0  0  0  0  0
    4.2125   -6.2917    0.0000 C   0  0  0  0  0  0  0  0  0  0  0  0
    2.7875   -5.4792    0.0000 O   0  0  0  0  0  0  0  0  0  0  0  0
    6.3292   -6.7250    0.0000 O   0  0  0  0  0  0  0  0  0  0  0  0
    3.5000   -6.7042    0.0000 C   0  0  0  0  0  0  0  0  0  0  0  0
    2.7875   -6.3000    0.0000 C   0  0  0  0  0  0  0  0  0  0  0  0
    4.2042   -3.8292    0.0000 C   0  0  0  0  0  0  0  0  0  0  0  0
    4.9000   -6.7167    0.0000 O   0  0  0  0  0  0  0  0  0  0  0  0
    7.0500   -5.4917    0.0000 O   0  0  0  0  0  0  0  0  0  0  0  0
    3.4917   -4.2417    0.0000 C   0  0  0  0  0  0  0  0  0  0  0  0
    6.3250   -7.5500    0.0000 C   0  0  0  0  0  0  0  0  0  0  0  0
    5.6292   -3.0042    0.0000 C   0  0  0  0  0  0  0  0  0  0  0  0
    1.9875   -6.0792    0.0000 C   0  0  0  0  0  0  0  0  0  0  0  0
    2.3667   -7.0125    0.0000 C   0  0  0  0  0  0  0  0  0  0  0  0
    7.0375   -7.9667    0.0000 C   0  0  0  0  0  0  0  0  0  0  0  0
    5.6042   -7.9542    0.0000 C   0  0  0  0  0  0  0  0  0  0  0  0
    6.9125   -6.9667    0.0000 C   0  0  0  0  0  0  0  0  0  0  0  0
  2  1  1  0
  3  1  1  0
  4  1  1  0
  5  4  2  0
  6  3  1  0
  7  4  1  0
  8  7  1  0
  9  5  1  0
 10  5  1  0
 11  9  1  0
 12  2  1  0
 13 10  2  0
 14 13  1  0
 15  7  2  0
 16  2  2  0
 17  3  2  0
 18 15  1  0
 19 12  1  0
 20  8  1  0
 21 14  1  0
 22 14  1  0
 23 19  1  0
 24 19  1  0
 25 19  1  0
  6  8  2  0
 18  9  2  0
 11 14  1  0
M  END

> <chembl_id>
CHEMBL266957

> <chembl_pref_name>
None

$$$$

     RDKit          2D

 26 28  0  0  0  0  0  0  0  0999 V2000
    5.1542    0.9208    0.0000 C   0  0  0  0  0  0  0  0  0  0  0  0
    5.4042    1.4625    0.0000 N   0  0  0  0  0  0  0  0  0  0  0  0
   -2.3958    0.5333    0.0000 N   0  0  0  0  0  0  0  0  0  0  0  0
    5.5917    0.5083    0.0000 O   0  0  0  0  0  0  0  0  0  0  0  0
   -1.8750    0.2333    0.0000 O   0  0  0  0  0  0  0  0  0  0  0  0
   -1.3625    1.1333    0.0000 C   0  0  0  0  0  0  0  0  0  0  0  0
   -1.3583    0.5333    0.0000 C   0  0  0  0  0  0  0  0  0  0  0  0
   -2.4000    1.1333    0.0000 C   0  0  0  0  0  0  0  0  0  0  0  0
    4.5667    0.8083    0.0000 C   0  0  0  0  0  0  0  0  0  0  0  0
    6.0042    1.3958    0.0000 C   0  0  0  0  0  0  0  0  0  0  0  0
    4.3750    0.2375    0.0000 C   0  0  0  0  0  0  0  0  0  0  0  0
    4.1750    1.2583    0.0000 C   0  0  0  0  0  0  0  0  0  0  0  0
    6.1167    0.8000    0.0000 C   0  0  0  0  0  0  0  0  0  0  0  0
    3.3917    0.5750    0.0000 C   0  0  0  0  0  0  0  0  0  0  0  0
    3.5875    1.1458    0.0000 C   0  0  0  0  0  0  0  0  0  0  0  0
    3.7875    0.1250    0.0000 C   0  0  0  0  0  0  0  0  0  0  0  0
    2.7917    0.5750    0.0000 O   0  0  0  0  0  0  0  0  0  0  0  0
   -0.8375    0.2458    0.0000 C   0  0  0  0  0  0  0  0  0  0  0  0
   -2.8333    1.5500    0.0000 C   0  0  0  0  0  0  0  0  0  0  0  0
    2.2750    0.2708    0.0000 C   0  0  0  0  0  0  0  0  0  0  0  0
    6.4125    1.8333    0.0000 C   0  0  0  0  0  0  0  0  0  0  0  0
   -0.3208    0.5458    0.0000 C   0  0  0  0  0  0  0  0  0  0  0  0
    1.7542    0.5625    0.0000 C   0  0  0  0  0  0  0  0  0  0  0  0
    1.2417    0.2583    0.0000 C   0  0  0  0  0  0  0  0  0  0  0  0
    0.2000    0.2500    0.0000 C   0  0  0  0  0  0  0  0  0  0  0  0
    0.7167    0.5583    0.0000 C   0  0  0  0  0  0  0  0  0  0  0  0
  2  1  2  0
  3  5  1  0
  4  1  1  0
  5  7  1  0
  6  7  2  0
  7 18  1  0
  8  6  1  0
  9  1  1  0
 10  2  1  0
 11  9  2  0
 12  9  1  0
 13  4  1  0
 14 15  1  0
 15 12  2  0
 16 11  1  0
 17 14  1  0
 18 22  1  0
 19  8  1  0
 20 17  1  0
 21 10  1  0
 22 25  1  0
 23 20  1  0
 24 23  1  0
 25 26  1  0
 26 24  1  0
 13 10  1  0
 16 14  2  0
  8  3  2  0
M  END

> <chembl_id>
CHEMBL6641

> <chembl_pref_name>
None

$$$$

     RDKit          2D

 24 26  0  0  0  0  0  0  0  0999 V2000
    4.3250   -4.0917    0.0000 S   0  0  0  0  0  0  0  0  0  0  0  0
    5.0375   -4.5042    0.0000 N   0  0  0  0  0  0  0  0  0  0  0  0
    4.3250   -3.2667    0.0000 C   0  0  0  0  0  0  0  0  0  0  0  0
    3.6042   -2.8542    0.0000 C   0  0  0  0  0  0  0  0  0  0  0  0
    3.6042   -2.0250    0.0000 C   0  0  0  0  0  0  0  0  0  0  0  0
    5.7500   -4.0792    0.0000 C   0  0  0  0  0  0  0  0  0  0  0  0
    2.8792   -1.6042    0.0000 C   0  0  0  0  0  0  0  0  0  0  0  0
    5.7417   -3.2542    0.0000 N   0  0  0  0  0  0  0  0  0  0  0  0
    3.4917   -4.0792    0.0000 O   0  0  0  0  0  0  0  0  0  0  0  0
    4.3167   -4.9250    0.0000 O   0  0  0  0  0  0  0  0  0  0  0  0
    7.1875   -4.0792    0.0000 N   0  0  0  0  0  0  0  0  0  0  0  0
    7.1875   -3.2417    0.0000 C   0  0  0  0  0  0  0  0  0  0  0  0
    2.8792   -0.7792    0.0000 N   0  0  0  0  0  0  0  0  0  0  0  0
    6.4792   -4.5000    0.0000 C   0  0  0  0  0  0  0  0  0  0  0  0
    6.4625   -2.8375    0.0000 C   0  0  0  0  0  0  0  0  0  0  0  0
    7.8917   -2.8292    0.0000 Br  0  0  0  0  0  0  0  0  0  0  0  0
    5.0417   -2.8500    0.0000 C   0  0  0  0  0  0  0  0  0  0  0  0
    2.8792   -3.2667    0.0000 C   0  0  0  0  0  0  0  0  0  0  0  0
    4.3167   -1.6042    0.0000 C   0  0  0  0  0  0  0  0  0  0  0  0
    2.1667   -2.0250    0.0000 C   0  0  0  0  0  0  0  0  0  0  0  0
    5.0417   -2.0167    0.0000 C   0  0  0  0  0  0  0  0  0  0  0  0
    2.1667   -2.8542    0.0000 C   0  0  0  0  0  0  0  0  0  0  0  0
    2.1625   -0.3625    0.0000 C   0  0  0  0  0  0  0  0  0  0  0  0
    3.6042   -0.3542    0.0000 C   0  0  0  0  0  0  0  0  0  0  0  0
  2  1  1  0
  3  1  1  0
  4  3  1  0
  5  4  2  0
  6  2  1  0
  7  5  1  0
  8  6  2  0
  9  1  2  0
 10  1  2  0
 11 14  2  0
 12 11  1  0
 13  7  1  0
 14  6  1  0
 15  8  1  0
 16 12  1  0
 17  3  2  0
 18  4  1  0
 19 21  2  0
 20 22  1  0
 21 17  1  0
 22 18  2  0
 23 13  1  0
 24 13  1  0
 19  5  1  0
 12 15  2  0
 20  7  2  0
M  END

> <chembl_id>
CHEMBL268339

> <chembl_pref_name>
None

$$$$

     RDKit          2D

 23 26  0  0  0  0  0  0  0  0999 V2000
    1.4292   -5.1042    0.0000 N   0  0  0  0  0  0  0  0  0  0  0  0
    2.1417   -3.8667    0.0000 N   0  0  0  0  0  0  0  0  0  0  0  0
    2.8625   -5.1042    0.0000 C   0  0  0  0  0  0  0  0  0  0  0  0
    2.8625   -4.2792    0.0000 C   0  0  0  0  0  0  0  0  0  0  0  0
    2.1417   -5.5167    0.0000 C   0  0  0  0  0  0  0  0  0  0  0  0
    1.4292   -4.2792    0.0000 C   0  0  0  0  0  0  0  0  0  0  0  0
    3.5792   -5.5167    0.0000 N   0  0  0  0  0  0  0  0  0  0  0  0
    3.5667   -3.8625    0.0000 N   0  0  0  0  0  0  0  0  0  0  0  0
    4.2917   -5.1000    0.0000 C   0  0  0  0  0  0  0  0  0  0  0  0
    5.0042   -5.5042    0.0000 S   0  0  0  0  0  0  0  0  0  0  0  0
    5.7167   -5.0917    0.0000 C   0  0  0  0  0  0  0  0  0  0  0  0
    6.4167   -3.8542    0.0000 C   0  0  0  0  0  0  0  0  0  0  0  0
    5.7125   -4.2792    0.0000 C   0  0  0  0  0  0  0  0  0  0  0  0
    4.2875   -4.2667    0.0000 C   0  0  0  0  0  0  0  0  0  0  0  0
    2.1500   -6.3417    0.0000 N   0  0  0  0  0  0  0  0  0  0  0  0
    0.7167   -3.8667    0.0000 N   0  0  0  0  0  0  0  0  0  0  0  0
    7.1417   -4.2667    0.0000 C   0  0  0  0  0  0  0  0  0  0  0  0
    7.1417   -5.0917    0.0000 C   0  0  0  0  0  0  0  0  0  0  0  0
    6.4292   -5.5042    0.0000 C   0  0  0  0  0  0  0  0  0  0  0  0
    6.4125   -3.0250    0.0000 C   0  0  0  0  0  0  0  0  0  0  0  0
    7.8542   -3.8500    0.0000 C   0  0  0  0  0  0  0  0  0  0  0  0
    7.1292   -2.6042    0.0000 C   0  0  0  0  0  0  0  0  0  0  0  0
    7.8542   -3.0167    0.0000 C   0  0  0  0  0  0  0  0  0  0  0  0
  2  6  1  0
  3  5  2  0
  4  2  2  0
  5  1  1  0
  6  1  2  0
  7  3  1  0
  8  4  1  0
  9  7  2  0
 10  9  1  0
 11 10  1  0
 12 13  2  0
 13 11  1  0
 14  8  2  0
 15  5  1  0
 16  6  1  0
 17 18  2  0
 18 19  1  0
 19 11  2  0
 20 12  1  0
 21 17  1  0
 22 20  2  0
 23 21  2  0
  3  4  1  0
  9 14  1  0
 12 17  1  0
 22 23  1  0
M  END

> <chembl_id>
CHEMBL6618

> <chembl_pref_name>
None

$$$$

     RDKit          2D

 21 23  0  0  0  0  0  0  0  0999 V2000
    4.7527    1.8959    0.0000 C   0  0  0  0  0  0  0  0  0  0  0  0
    4.7516    1.0685    0.0000 C   0  0  0  0  0  0  0  0  0  0  0  0
    5.4664    0.6556    0.0000 C   0  0  0  0  0  0  0  0  0  0  0  0
    6.1828    1.0690    0.0000 C   0  0  0  0  0  0  0  0  0  0  0  0
    6.1800    1.8995    0.0000 C   0  0  0  0  0  0  0  0  0  0  0  0
    5.4646    2.3086    0.0000 C   0  0  0  0  0  0  0  0  0  0  0  0
    5.4662   -0.1694    0.0000 C   0  0  0  0  0  0  0  0  0  0  0  0
    6.1806   -0.5820    0.0000 C   0  0  0  0  0  0  0  0  0  0  0  0
    4.7516   -0.5817    0.0000 C   0  0  0  0  0  0  0  0  0  0  0  0
    4.0407   -0.1659    0.0000 C   0  0  0  0  0  0  0  0  0  0  0  0
    3.3266   -0.5776    0.0000 C   0  0  0  0  0  0  0  0  0  0  0  0
    3.3260   -1.4035    0.0000 C   0  0  0  0  0  0  0  0  0  0  0  0
    4.0454   -1.8160    0.0000 C   0  0  0  0  0  0  0  0  0  0  0  0
    4.7565   -1.4020    0.0000 C   0  0  0  0  0  0  0  0  0  0  0  0
    2.6119   -1.8167    0.0000 O   0  0  0  0  0  0  0  0  0  0  0  0
    5.4621    3.1336    0.0000 O   0  0  0  0  0  0  0  0  0  0  0  0
    6.1768   -1.4094    0.0000 C   0  0  0  0  0  0  0  0  0  0  0  0
    6.8871   -1.8220    0.0000 C   0  0  0  0  0  0  0  0  0  0  0  0
    7.6041   -1.4132    0.0000 C   0  0  0  0  0  0  0  0  0  0  0  0
    7.6063   -0.5872    0.0000 C   0  0  0  0  0  0  0  0  0  0  0  0
    6.8915   -0.1701    0.0000 C   0  0  0  0  0  0  0  0  0  0  0  0
  2  3  1  0
 10 11  1  0
  5  6  2  0
 11 12  2  0
  6  1  1  0
 12 13  1  0
  1  2  2  0
 13 14  2  0
 14  9  1  0
  3  7  1  0
 12 15  1  0
  3  4  2  0
  6 16  1  0
  8 17  1  0
  7  8  2  0
  7  9  1  0
  4  5  1  0
  9 10  2  0
  8 21  1  0
 17 18  1  0
 18 19  1  0
 19 20  1  0
 20 21  1  0
M  END

> <chembl_id>
CHEMBL6619

> <chembl_pref_name>
None

$$$$

     RDKit          2D

 18 19  0  0  0  0  0  0  0  0999 V2000
    6.6875   -5.1417    0.0000 C   0  0  0  0  0  0  0  0  0  0  0  0
    7.2042   -5.4375    0.0000 C   0  0  0  0  0  0  0  0  0  0  0  0
    7.7250   -5.1375    0.0000 C   0  0  0  0  0  0  0  0  0  0  0  0
    6.1667   -5.4417    0.0000 C   0  0  0  0  0  0  0  0  0  0  0  0
    7.7292   -4.5292    0.0000 C   0  0  0  0  0  0  0  0  0  0  0  0
    5.6500   -5.1417    0.0000 C   0  0  0  0  0  0  0  0  0  0  0  0
    8.2417   -5.4375    0.0000 C   0  0  0  0  0  0  0  0  0  0  0  0
    6.1667   -6.0500    0.0000 C   0  0  0  0  0  0  0  0  0  0  0  0
    5.1292   -6.0500    0.0000 C   0  0  0  0  0  0  0  0  0  0  0  0
    8.7625   -4.5292    0.0000 C   0  0  0  0  0  0  0  0  0  0  0  0
    5.1292   -5.4500    0.0000 C   0  0  0  0  0  0  0  0  0  0  0  0
    8.7667   -5.1375    0.0000 C   0  0  0  0  0  0  0  0  0  0  0  0
    5.6500   -6.3500    0.0000 C   0  0  0  0  0  0  0  0  0  0  0  0
    8.2417   -4.2292    0.0000 C   0  0  0  0  0  0  0  0  0  0  0  0
    6.6792   -4.5417    0.0000 C   0  0  0  0  0  0  0  0  0  0  0  0
    7.2125   -6.0375    0.0000 C   0  0  0  0  0  0  0  0  0  0  0  0
    4.6125   -6.3500    0.0000 O   0  0  0  0  0  0  0  0  0  0  0  0
    9.2792   -4.2250    0.0000 O   0  0  0  0  0  0  0  0  0  0  0  0
  2  1  2  0
  3  2  1  0
  4  1  1  0
  5  3  2  0
  6  4  2  0
  7  3  1  0
  8  4  1  0
  9 13  1  0
 10 12  1  0
 11  6  1  0
 12  7  2  0
 13  8  2  0
 14  5  1  0
 15  1  1  0
 16  2  1  0
 17  9  1  0
 18 10  1  0
  9 11  2  0
 10 14  2  0
M  END

> <chembl_id>
CHEMBL269003

> <chembl_pref_name>
DIMETHYLSTILBESTROL

$$$$

     RDKit          2D

 23 24  0  0  0  0  0  0  0  0999 V2000
    1.5417   -4.1292    0.0000 C   0  0  0  0  0  0  0  0  0  0  0  0
    2.0625   -3.8375    0.0000 C   0  0  0  0  0  0  0  0  0  0  0  0
    1.5500   -4.7375    0.0000 C   0  0  0  0  0  0  0  0  0  0  0  0
    1.0250   -3.8417    0.0000 C   0  0  0  0  0  0  0  0  0  0  0  0
    0.5042   -4.1417    0.0000 C   0  0  0  0  0  0  0  0  0  0  0  0
    1.0167   -3.2417    0.0000 C   0  0  0  0  0  0  0  0  0  0  0  0
    2.5792   -4.1292    0.0000 F   0  0  0  0  0  0  0  0  0  0  0  0
    2.0667   -5.0375    0.0000 F   0  0  0  0  0  0  0  0  0  0  0  0
    1.1250   -5.1542    0.0000 F   0  0  0  0  0  0  0  0  0  0  0  0
    1.5417   -5.3375    0.0000 F   0  0  0  0  0  0  0  0  0  0  0  0
    2.0667   -3.2292    0.0000 F   0  0  0  0  0  0  0  0  0  0  0  0
    2.5792   -3.5292    0.0000 F   0  0  0  0  0  0  0  0  0  0  0  0
    0.5042   -4.7500    0.0000 C   0  0  0  0  0  0  0  0  0  0  0  0
   -0.0125   -3.8417    0.0000 C   0  0  0  0  0  0  0  0  0  0  0  0
   -0.5333   -4.7500    0.0000 C   0  0  0  0  0  0  0  0  0  0  0  0
   -0.0125   -5.0500    0.0000 C   0  0  0  0  0  0  0  0  0  0  0  0
   -0.5333   -4.1500    0.0000 C   0  0  0  0  0  0  0  0  0  0  0  0
   -1.0500   -5.0500    0.0000 O   0  0  0  0  0  0  0  0  0  0  0  0
    0.5000   -2.9417    0.0000 C   0  0  0  0  0  0  0  0  0  0  0  0
    1.5417   -2.9417    0.0000 C   0  0  0  0  0  0  0  0  0  0  0  0
    1.5375   -2.3417    0.0000 C   0  0  0  0  0  0  0  0  0  0  0  0
    0.4917   -2.3500    0.0000 C   0  0  0  0  0  0  0  0  0  0  0  0
    1.0167   -2.0417    0.0000 C   0  0  0  0  0  0  0  0  0  0  0  0
  2  1  1  0
  3  1  1  0
  4  1  2  0
  5  4  1  0
  6  4  1  0
  7  2  1  0
  8  3  1  0
  9  3  1  0
 10  3  1  0
 11  2  1  0
 12  2  1  0
 13  5  1  0
 14  5  2  0
 15 17  2  0
 16 13  2  0
 17 14  1  0
 18 15  1  0
 19  6  1  0
 20  6  2  0
 21 20  1  0
 22 19  2  0
 23 21  2  0
 16 15  1  0
 23 22  1  0
M  END

> <chembl_id>
CHEMBL6413

> <chembl_pref_name>
None

$$$$

     RDKit          2D

 23 25  0  0  0  0  0  0  0  0999 V2000
    4.5042   -4.0917    0.0000 S   0  0  0  0  0  0  0  0  0  0  0  0
    4.5042   -3.2667    0.0000 C   0  0  0  0  0  0  0  0  0  0  0  0
    5.2167   -4.5042    0.0000 N   0  0  0  0  0  0  0  0  0  0  0  0
    3.7792   -2.8500    0.0000 C   0  0  0  0  0  0  0  0  0  0  0  0
    3.7792   -2.0167    0.0000 C   0  0  0  0  0  0  0  0  0  0  0  0
    3.0625   -1.6042    0.0000 C   0  0  0  0  0  0  0  0  0  0  0  0
    3.6750   -4.0917    0.0000 O   0  0  0  0  0  0  0  0  0  0  0  0
    4.5000   -4.9250    0.0000 O   0  0  0  0  0  0  0  0  0  0  0  0
    3.0625   -0.7667    0.0000 N   0  0  0  0  0  0  0  0  0  0  0  0
    5.9375   -4.0917    0.0000 C   0  0  0  0  0  0  0  0  0  0  0  0
    7.3625   -4.0792    0.0000 N   0  0  0  0  0  0  0  0  0  0  0  0
    5.2167   -2.8500    0.0000 C   0  0  0  0  0  0  0  0  0  0  0  0
    4.5000   -1.6042    0.0000 C   0  0  0  0  0  0  0  0  0  0  0  0
    3.0625   -3.2667    0.0000 C   0  0  0  0  0  0  0  0  0  0  0  0
    2.3542   -2.0167    0.0000 C   0  0  0  0  0  0  0  0  0  0  0  0
    6.6542   -4.4917    0.0000 C   0  0  0  0  0  0  0  0  0  0  0  0
    5.2167   -2.0167    0.0000 C   0  0  0  0  0  0  0  0  0  0  0  0
    2.3542   -2.8500    0.0000 C   0  0  0  0  0  0  0  0  0  0  0  0
    7.3625   -3.2417    0.0000 C   0  0  0  0  0  0  0  0  0  0  0  0
    3.7792   -0.3542    0.0000 C   0  0  0  0  0  0  0  0  0  0  0  0
    2.3417   -0.3542    0.0000 C   0  0  0  0  0  0  0  0  0  0  0  0
    5.9250   -3.2542    0.0000 C   0  0  0  0  0  0  0  0  0  0  0  0
    6.6417   -2.8292    0.0000 C   0  0  0  0  0  0  0  0  0  0  0  0
  2  1  1  0
  3  1  1  0
  4  2  1  0
  5  4  2  0
  6  5  1  0
  7  1  2  0
  8  1  2  0
  9  6  1  0
 10  3  1  0
 11 16  2  0
 12  2  2  0
 13 17  2  0
 14  4  1  0
 15 18  1  0
 16 10  1  0
 17 12  1  0
 18 14  2  0
 19 23  2  0
 20  9  1  0
 21  9  1  0
 22 10  2  0
 23 22  1  0
 13  5  1  0
 19 11  1  0
 15  6  2  0
M  END

> <chembl_id>
CHEMBL6414

> <chembl_pref_name>
None

$$$$

     RDKit          2D

 25 27  0  0  0  0  0  0  0  0999 V2000
    4.3542   -4.0917    0.0000 S   0  0  0  0  0  0  0  0  0  0  0  0
    5.0625   -4.5042    0.0000 N   0  0  0  0  0  0  0  0  0  0  0  0
    5.7792   -4.0792    0.0000 C   0  0  0  0  0  0  0  0  0  0  0  0
    4.3542   -3.2667    0.0000 C   0  0  0  0  0  0  0  0  0  0  0  0
    5.7667   -3.2542    0.0000 N   0  0  0  0  0  0  0  0  0  0  0  0
    3.6292   -2.8542    0.0000 C   0  0  0  0  0  0  0  0  0  0  0  0
    3.6292   -2.0250    0.0000 C   0  0  0  0  0  0  0  0  0  0  0  0
    2.9042   -1.6042    0.0000 C   0  0  0  0  0  0  0  0  0  0  0  0
    6.4875   -2.8375    0.0000 N   0  0  0  0  0  0  0  0  0  0  0  0
    6.5042   -4.5000    0.0000 C   0  0  0  0  0  0  0  0  0  0  0  0
    3.5167   -4.0792    0.0000 O   0  0  0  0  0  0  0  0  0  0  0  0
    4.3417   -4.9250    0.0000 O   0  0  0  0  0  0  0  0  0  0  0  0
    7.2125   -3.2417    0.0000 C   0  0  0  0  0  0  0  0  0  0  0  0
    2.9042   -0.7792    0.0000 N   0  0  0  0  0  0  0  0  0  0  0  0
    7.2125   -4.0792    0.0000 C   0  0  0  0  0  0  0  0  0  0  0  0
    7.9250   -2.8292    0.0000 Cl  0  0  0  0  0  0  0  0  0  0  0  0
    5.0667   -2.8500    0.0000 C   0  0  0  0  0  0  0  0  0  0  0  0
    2.9042   -3.2667    0.0000 C   0  0  0  0  0  0  0  0  0  0  0  0
    4.3417   -1.6042    0.0000 C   0  0  0  0  0  0  0  0  0  0  0  0
    2.1917   -2.0250    0.0000 C   0  0  0  0  0  0  0  0  0  0  0  0
    5.0667   -2.0167    0.0000 C   0  0  0  0  0  0  0  0  0  0  0  0
    2.1917   -2.8542    0.0000 C   0  0  0  0  0  0  0  0  0  0  0  0
    6.5042   -5.3292    0.0000 C   0  0  0  0  0  0  0  0  0  0  0  0
    3.6292   -0.3542    0.0000 C   0  0  0  0  0  0  0  0  0  0  0  0
    2.1875   -0.3625    0.0000 C   0  0  0  0  0  0  0  0  0  0  0  0
  2  1  1  0
  3  2  1  0
  4  1  1  0
  5  3  2  0
  6  4  1  0
  7  6  2  0
  8  7  1  0
  9  5  1  0
 10  3  1  0
 11  1  2  0
 12  1  2  0
 13 15  1  0
 14  8  1  0
 15 10  2  0
 16 13  1  0
 17  4  2  0
 18  6  1  0
 19 21  2  0
 20 22  1  0
 21 17  1  0
 22 18  2  0
 23 10  1  0
 24 14  1  0
 25 14  1  0
 19  7  1  0
 20  8  2  0
 13  9  2  0
M  END

> <chembl_id>
CHEMBL415106

> <chembl_pref_name>
None

$$$$

     RDKit          2D

 14 16  0  0  0  0  0  0  0  0999 V2000
    2.5889    0.0182    0.0000 C   0  0  0  0  0  0  0  0  0  0  0  0
    1.7138   -1.2033    0.0000 O   0  0  0  0  0  0  0  0  0  0  0  0
    4.0896    0.0290    0.0000 C   0  0  0  0  0  0  0  0  0  0  0  0
    1.7138    1.2033    0.0000 C   0  0  0  0  0  0  0  0  0  0  0  0
    5.0305    1.1747    0.0000 N   0  0  0  0  0  0  0  0  0  0  0  0
    0.2917   -0.7475    0.0000 C   0  0  0  0  0  0  0  0  0  0  0  0
    0.2917    0.7475    0.0000 C   0  0  0  0  0  0  0  0  0  0  0  0
    4.8568   -1.2462    0.0000 N   0  0  0  0  0  0  0  0  0  0  0  0
    6.4203    0.6103    0.0000 C   0  0  0  0  0  0  0  0  0  0  0  0
    6.3129   -0.8859    0.0000 C   0  0  0  0  0  0  0  0  0  0  0  0
   -1.0028   -1.5132    0.0000 C   0  0  0  0  0  0  0  0  0  0  0  0
   -1.0028    1.5132    0.0000 C   0  0  0  0  0  0  0  0  0  0  0  0
   -2.3155    0.7475    0.0000 C   0  0  0  0  0  0  0  0  0  0  0  0
   -2.3155   -0.7475    0.0000 C   0  0  0  0  0  0  0  0  0  0  0  0
  1  2  1  0
  1  3  1  0
  1  4  2  0
  3  5  2  0
  2  6  1  0
  4  7  1  0
  6  7  1  0
  3  8  1  0
  5  9  1  0
  8 10  1  0
  9 10  1  0
  6 11  2  0
  7 12  2  0
 12 13  1  0
 11 14  1  0
 13 14  2  0
M  END

> <chembl_id>
CHEMBL404505

> <chembl_pref_name>
None

$$$$

     RDKit          2D

 22 24  0  0  0  0  0  0  0  0999 V2000
    1.4292   -5.1042    0.0000 N   0  0  0  0  0  0  0  0  0  0  0  0
    2.1417   -3.8667    0.0000 N   0  0  0  0  0  0  0  0  0  0  0  0
    2.8625   -5.1042    0.0000 C   0  0  0  0  0  0  0  0  0  0  0  0
    2.8625   -4.2792    0.0000 C   0  0  0  0  0  0  0  0  0  0  0  0
    2.1417   -5.5167    0.0000 C   0  0  0  0  0  0  0  0  0  0  0  0
    1.4292   -4.2792    0.0000 C   0  0  0  0  0  0  0  0  0  0  0  0
    3.5792   -5.5167    0.0000 N   0  0  0  0  0  0  0  0  0  0  0  0
    5.7167   -5.0917    0.0000 C   0  0  0  0  0  0  0  0  0  0  0  0
    3.5667   -3.8625    0.0000 N   0  0  0  0  0  0  0  0  0  0  0  0
    4.2917   -5.1000    0.0000 C   0  0  0  0  0  0  0  0  0  0  0  0
    6.4292   -5.5042    0.0000 C   0  0  0  0  0  0  0  0  0  0  0  0
    6.4250   -3.8542    0.0000 C   0  0  0  0  0  0  0  0  0  0  0  0
    5.0042   -5.5042    0.0000 S   0  0  0  0  0  0  0  0  0  0  0  0
    5.7125   -4.2750    0.0000 C   0  0  0  0  0  0  0  0  0  0  0  0
    7.1417   -5.0917    0.0000 C   0  0  0  0  0  0  0  0  0  0  0  0
    7.1417   -4.2667    0.0000 C   0  0  0  0  0  0  0  0  0  0  0  0
    4.2875   -4.2667    0.0000 C   0  0  0  0  0  0  0  0  0  0  0  0
    2.1500   -6.3417    0.0000 N   0  0  0  0  0  0  0  0  0  0  0  0
    0.7167   -3.8667    0.0000 N   0  0  0  0  0  0  0  0  0  0  0  0
    4.9917   -3.8667    0.0000 Cl  0  0  0  0  0  0  0  0  0  0  0  0
    7.8542   -3.8542    0.0000 Cl  0  0  0  0  0  0  0  0  0  0  0  0
    7.8625   -5.5042    0.0000 Cl  0  0  0  0  0  0  0  0  0  0  0  0
  2  6  1  0
  3  5  2  0
  4  2  2  0
  5  1  1  0
  6  1  2  0
  7  3  1  0
  8 13  1  0
  9  4  1  0
 10  7  2  0
 11  8  2  0
 12 14  2  0
 13 10  1  0
 14  8  1  0
 15 11  1  0
 16 12  1  0
 17  9  2  0
 18  5  1  0
 19  6  1  0
 20 14  1  0
 21 16  1  0
 22 15  1  0
  3  4  1  0
 10 17  1  0
 15 16  2  0
M  END

> <chembl_id>
CHEMBL6465

> <chembl_pref_name>
None

$$$$

     RDKit          2D

 18 20  0  0  0  0  0  0  0  0999 V2000
   -2.2500    1.2333    0.0000 N   0  0  0  0  0  0  0  0  0  0  0  0
    1.5375    1.9583    0.0000 N   0  0  0  0  0  0  0  0  0  0  0  0
   -1.9708    0.5833    0.0000 C   0  0  0  0  0  0  0  0  0  0  0  0
    2.2542    1.5375    0.0000 C   0  0  0  0  0  0  0  0  0  0  0  0
   -1.2625    0.3125    0.0000 C   0  0  0  0  0  0  0  0  0  0  0  0
    0.8292    0.7083    0.0000 N   0  0  0  0  0  0  0  0  0  0  0  0
    0.8250    1.5333    0.0000 C   0  0  0  0  0  0  0  0  0  0  0  0
   -0.6000    0.7000    0.0000 C   0  0  0  0  0  0  0  0  0  0  0  0
   -2.1333   -0.2125    0.0000 C   0  0  0  0  0  0  0  0  0  0  0  0
   -1.4875   -0.4250    0.0000 C   0  0  0  0  0  0  0  0  0  0  0  0
    0.1125    0.2875    0.0000 C   0  0  0  0  0  0  0  0  0  0  0  0
    2.2542    0.7125    0.0000 O   0  0  0  0  0  0  0  0  0  0  0  0
   -2.5958    0.1000    0.0000 C   0  0  0  0  0  0  0  0  0  0  0  0
   -0.6000    1.5333    0.0000 C   0  0  0  0  0  0  0  0  0  0  0  0
    0.1125    1.9458    0.0000 C   0  0  0  0  0  0  0  0  0  0  0  0
    2.9667    1.9583    0.0000 O   0  0  0  0  0  0  0  0  0  0  0  0
   -2.7833   -0.5792    0.0000 C   0  0  0  0  0  0  0  0  0  0  0  0
    3.6792    1.5458    0.0000 C   0  0  0  0  0  0  0  0  0  0  0  0
  2  7  1  0
  3  1  1  0
  4  2  1  0
  5  3  1  0
  6 11  2  0
  7 15  2  0
  8  5  1  0
  9  1  1  0
 10  9  1  0
 11  8  1  0
 12  4  2  0
 13  3  1  0
 14  8  2  0
 15 14  1  0
 16  4  1  0
 17  9  1  0
 18 16  1  0
 17 13  1  0
  5 10  1  0
  7  6  1  0
M  END

> <chembl_id>
CHEMBL267191

> <chembl_pref_name>
None

$$$$

     RDKit          2D

 14 16  0  0  0  0  0  0  0  0999 V2000
    0.2792    0.8458    0.0000 N   0  0  0  0  0  0  0  0  0  0  0  0
    0.5667    0.1958    0.0000 C   0  0  0  0  0  0  0  0  0  0  0  0
    1.2667   -0.0792    0.0000 C   0  0  0  0  0  0  0  0  0  0  0  0
    3.3542    1.1458    0.0000 C   0  0  0  0  0  0  0  0  0  0  0  0
    2.6417    1.5500    0.0000 N   0  0  0  0  0  0  0  0  0  0  0  0
    3.3542    0.3125    0.0000 N   0  0  0  0  0  0  0  0  0  0  0  0
    1.9292    0.3083    0.0000 C   0  0  0  0  0  0  0  0  0  0  0  0
    0.3917   -0.6042    0.0000 C   0  0  0  0  0  0  0  0  0  0  0  0
    1.0417   -0.8167    0.0000 C   0  0  0  0  0  0  0  0  0  0  0  0
    1.9292    1.1375    0.0000 C   0  0  0  0  0  0  0  0  0  0  0  0
    2.6417   -0.1042    0.0000 C   0  0  0  0  0  0  0  0  0  0  0  0
   -0.0625   -0.2917    0.0000 C   0  0  0  0  0  0  0  0  0  0  0  0
    4.0667    1.5583    0.0000 Cl  0  0  0  0  0  0  0  0  0  0  0  0
   -0.2500   -0.9750    0.0000 C   0  0  0  0  0  0  0  0  0  0  0  0
  2  1  1  0
  3  2  1  0
  4  6  1  0
  5 10  1  0
  6 11  2  0
  7  3  1  0
  8  1  1  0
  9  8  1  0
 10  7  2  0
 11  7  1  0
 12  2  1  0
 13  4  1  0
 14  8  1  0
 14 12  1  0
  3  9  1  0
  4  5  2  0
M  END

> <chembl_id>
CHEMBL6489

> <chembl_pref_name>
None

$$$$

     RDKit          2D

 21 23  0  0  0  0  0  0  0  0999 V2000
    4.2667   -3.0667    0.0000 C   0  0  0  0  0  0  0  0  0  0  0  0
    4.9750   -3.4875    0.0000 C   0  0  0  0  0  0  0  0  0  0  0  0
    4.9667   -4.3167    0.0000 C   0  0  0  0  0  0  0  0  0  0  0  0
    4.2667   -2.2417    0.0000 C   0  0  0  0  0  0  0  0  0  0  0  0
    4.2542   -4.7167    0.0000 O   0  0  0  0  0  0  0  0  0  0  0  0
    3.5375   -4.3042    0.0000 C   0  0  0  0  0  0  0  0  0  0  0  0
    3.5417   -3.4792    0.0000 C   0  0  0  0  0  0  0  0  0  0  0  0
    6.4000   -4.3167    0.0000 C   0  0  0  0  0  0  0  0  0  0  0  0
    6.4042   -3.5000    0.0000 C   0  0  0  0  0  0  0  0  0  0  0  0
    5.6917   -3.0792    0.0000 C   0  0  0  0  0  0  0  0  0  0  0  0
    5.6792   -4.7292    0.0000 C   0  0  0  0  0  0  0  0  0  0  0  0
    7.1042   -4.7417    0.0000 N   0  0  0  0  0  0  0  0  0  0  0  0
    2.8167   -4.7250    0.0000 O   0  0  0  0  0  0  0  0  0  0  0  0
    7.1167   -3.0917    0.0000 C   0  0  0  0  0  0  0  0  0  0  0  0
    4.2792   -1.4250    0.0000 F   0  0  0  0  0  0  0  0  0  0  0  0
    5.0917   -2.2542    0.0000 F   0  0  0  0  0  0  0  0  0  0  0  0
    3.4417   -2.2417    0.0000 F   0  0  0  0  0  0  0  0  0  0  0  0
    7.8292   -4.3292    0.0000 C   0  0  0  0  0  0  0  0  0  0  0  0
    7.8292   -3.5042    0.0000 C   0  0  0  0  0  0  0  0  0  0  0  0
    7.1250   -2.2667    0.0000 C   0  0  0  0  0  0  0  0  0  0  0  0
    7.8417   -1.8542    0.0000 C   0  0  0  0  0  0  0  0  0  0  0  0
  2  1  1  0
  3  2  2  0
  4  1  1  0
  5  6  1  0
  6  7  1  0
  7  1  2  0
  8  9  1  0
  9 10  2  0
 10  2  1  0
 11  3  1  0
 12  8  1  0
 13  6  2  0
 14  9  1  0
 15  4  1  0
 16  4  1  0
 17  4  1  0
 18 19  1  0
 19 14  1  0
 20 14  1  0
 21 20  1  0
  3  5  1  0
 11  8  2  0
 12 18  1  0
M  END

> <chembl_id>
CHEMBL6843

> <chembl_pref_name>
None

$$$$

     RDKit          2D

 29 30  0  0  0  0  0  0  0  0999 V2000
    5.1984   -2.7012    0.0000 C   0  0  0  0  0  0  0  0  0  0  0  0
    5.1988   -1.5012    0.0000 C   0  0  0  0  0  0  0  0  0  0  0  0
    4.1594   -2.1011    0.0000 O   0  0  0  0  0  0  0  0  0  0  0  0
    3.8990   -0.7508    0.0000 C   0  0  0  0  0  0  0  0  0  0  0  0
    2.5988   -1.5004    0.0000 S   0  0  0  0  0  0  0  0  0  0  0  0
    2.5984   -2.7004    0.0000 O   0  0  0  0  0  0  0  0  0  0  0  0
    3.6377   -2.1009    0.0000 O   0  0  0  0  0  0  0  0  0  0  0  0
    1.2990   -0.7500    0.0000 C   0  0  0  0  0  0  0  0  0  0  0  0
    1.2990    0.7500    0.0000 C   0  0  0  0  0  0  0  0  0  0  0  0
    0.0000    1.5000    0.0000 C   0  0  0  0  0  0  0  0  0  0  0  0
   -1.2990    0.7500    0.0000 C   0  0  0  0  0  0  0  0  0  0  0  0
   -2.3383    1.3500    0.0000 F   0  0  0  0  0  0  0  0  0  0  0  0
   -1.2990   -0.7500    0.0000 C   0  0  0  0  0  0  0  0  0  0  0  0
    0.0000   -1.5000    0.0000 C   0  0  0  0  0  0  0  0  0  0  0  0
    6.4990   -0.7516    0.0000 C   0  0  0  0  0  0  0  0  0  0  0  0
    6.4994    0.4484    0.0000 O   0  0  0  0  0  0  0  0  0  0  0  0
    7.7988   -1.5020    0.0000 N   0  0  0  0  0  0  0  0  0  0  0  0
    9.0990   -0.7525    0.0000 C   0  0  0  0  0  0  0  0  0  0  0  0
   10.3991   -1.5006    0.0000 C   0  0  0  0  0  0  0  0  0  0  0  0
   11.6971   -0.7487    0.0000 C   0  0  0  0  0  0  0  0  0  0  0  0
   11.6950    0.7512    0.0000 C   0  0  0  0  0  0  0  0  0  0  0  0
   12.9937    1.5035    0.0000 C   0  0  0  0  0  0  0  0  0  0  0  0
   14.0321    2.1049    0.0000 N   0  0  0  0  0  0  0  0  0  0  0  0
   10.3949    1.4994    0.0000 C   0  0  0  0  0  0  0  0  0  0  0  0
    9.0969    0.7476    0.0000 C   0  0  0  0  0  0  0  0  0  0  0  0
   10.3928    3.0003    0.0000 C   0  0  0  0  0  0  0  0  0  0  0  0
   11.4308    3.6024    0.0000 F   0  0  0  0  0  0  0  0  0  0  0  0
    9.3526    3.5985    0.0000 F   0  0  0  0  0  0  0  0  0  0  0  0
   10.3906    4.2002    0.0000 F   0  0  0  0  0  0  0  0  0  0  0  0
  1  2  1  0
  2  3  1  0
  2  4  1  0
  4  5  1  0
  5  6  2  0
  5  7  2  0
  5  8  1  0
  8  9  2  0
  9 10  1  0
 10 11  2  0
 11 12  1  0
 11 13  1  0
 13 14  2  0
 14  8  1  0
  2 15  1  0
 15 16  2  0
 15 17  1  0
 17 18  1  0
 18 19  2  0
 19 20  1  0
 20 21  2  0
 21 22  1  0
 22 23  3  0
 21 24  1  0
 24 25  2  0
 25 18  1  0
 24 26  1  0
 26 27  1  0
 26 28  1  0
 26 29  1  0
M  END

> <chembl_id>
CHEMBL409

> <chembl_pref_name>
BICALUTAMIDE

$$$$

     RDKit          2D

 29 31  0  0  0  0  0  0  0  0999 V2000
   -3.2625   -2.3000    0.0000 S   0  0  0  0  0  0  0  0  0  0  0  0
   -2.5458   -1.0542    0.0000 C   0  0  0  0  0  0  0  0  0  0  0  0
   -3.2625   -0.6417    0.0000 C   0  0  0  0  0  0  0  0  0  0  0  0
    0.3042   -1.0417    0.0000 C   0  0  0  0  0  0  0  0  0  0  0  0
   -2.5458   -1.8792    0.0000 C   0  0  0  0  0  0  0  0  0  0  0  0
   -3.9750   -1.8875    0.0000 C   0  0  0  0  0  0  0  0  0  0  0  0
    3.8875   -2.2542    0.0000 C   0  0  0  0  0  0  0  0  0  0  0  0
   -0.4083   -0.6292    0.0000 N   0  0  0  0  0  0  0  0  0  0  0  0
   -3.9750   -1.0625    0.0000 C   0  0  0  0  0  0  0  0  0  0  0  0
    1.0167   -0.6250    0.0000 N   0  0  0  0  0  0  0  0  0  0  0  0
    3.1667   -1.8500    0.0000 C   0  0  0  0  0  0  0  0  0  0  0  0
   -1.8458   -0.6417    0.0000 C   0  0  0  0  0  0  0  0  0  0  0  0
   -1.1208   -1.0500    0.0000 C   0  0  0  0  0  0  0  0  0  0  0  0
    0.3125   -1.8667    0.0000 O   0  0  0  0  0  0  0  0  0  0  0  0
    4.6000   -1.8375    0.0000 O   0  0  0  0  0  0  0  0  0  0  0  0
   -1.8333   -2.2917    0.0000 C   0  0  0  0  0  0  0  0  0  0  0  0
    2.4542   -2.2667    0.0000 C   0  0  0  0  0  0  0  0  0  0  0  0
    3.1542   -1.0167    0.0000 C   0  0  0  0  0  0  0  0  0  0  0  0
    1.7375   -1.0292    0.0000 C   0  0  0  0  0  0  0  0  0  0  0  0
   -1.1208   -1.8792    0.0000 C   0  0  0  0  0  0  0  0  0  0  0  0
    3.8917   -3.0792    0.0000 O   0  0  0  0  0  0  0  0  0  0  0  0
    2.4417   -0.6167    0.0000 C   0  0  0  0  0  0  0  0  0  0  0  0
    1.7375   -1.8542    0.0000 C   0  0  0  0  0  0  0  0  0  0  0  0
   -2.6833   -0.0542    0.0000 C   0  0  0  0  0  0  0  0  0  0  0  0
   -3.8500   -0.0542    0.0000 C   0  0  0  0  0  0  0  0  0  0  0  0
   -4.6958   -1.4750    0.0000 C   0  0  0  0  0  0  0  0  0  0  0  0
   -4.6958   -2.3000    0.0000 C   0  0  0  0  0  0  0  0  0  0  0  0
    3.1792   -3.5000    0.0000 C   0  0  0  0  0  0  0  0  0  0  0  0
    3.1875   -4.3167    0.0000 C   0  0  0  0  0  0  0  0  0  0  0  0
  2  5  2  0
  3  9  1  0
  4  8  1  0
  5  1  1  0
  6  1  1  0
  7 11  1  0
  8 13  1  0
  9  6  1  0
 10  4  1  0
 11 17  2  0
 12  2  1  0
 13 20  1  0
 14  4  2  0
 15  7  2  0
 16  5  1  0
 17 23  1  0
 18 22  2  0
 19 10  1  0
 20 16  2  0
 21  7  1  0
 22 19  1  0
 23 19  2  0
 24  3  1  0
 25  3  1  0
 26  6  1  0
 27  6  1  0
 28 21  1  0
 29 28  1  0
  2  3  1  0
 13 12  2  0
 18 11  1  0
M  END

> <chembl_id>
CHEMBL266659

> <chembl_pref_name>
None

$$$$

     RDKit          2D

 20 22  0  0  0  0  0  0  0  0999 V2000
    2.8552   -0.6517    0.0000 C   0  0  0  0  0  0  0  0  0  0  0  0
    1.6852   -0.3846    0.0000 N   0  0  0  0  0  0  0  0  0  0  0  0
    1.3514    1.0778    0.0000 C   0  0  0  0  0  0  0  0  0  0  0  0
    2.2896    1.8259    0.0000 O   0  0  0  0  0  0  0  0  0  0  0  0
    0.0000    1.7286    0.0000 C   0  0  0  0  0  0  0  0  0  0  0  0
   -1.3515    1.0777    0.0000 N   0  0  0  0  0  0  0  0  0  0  0  0
   -1.6852   -0.3847    0.0000 C   0  0  0  0  0  0  0  0  0  0  0  0
   -3.1484   -0.7186    0.0000 C   0  0  0  0  0  0  0  0  0  0  0  0
   -4.1145    0.4339    0.0000 C   0  0  0  0  0  0  0  0  0  0  0  0
   -5.5920    0.1754    0.0000 C   0  0  0  0  0  0  0  0  0  0  0  0
   -6.1069   -1.2335    0.0000 C   0  0  0  0  0  0  0  0  0  0  0  0
   -5.1442   -2.3838    0.0000 C   0  0  0  0  0  0  0  0  0  0  0  0
   -3.6667   -2.1253    0.0000 C   0  0  0  0  0  0  0  0  0  0  0  0
   -0.7500   -1.5574    0.0000 C   0  0  0  0  0  0  0  0  0  0  0  0
   -1.5000   -2.8577    0.0000 C   0  0  0  0  0  0  0  0  0  0  0  0
   -0.7500   -4.1567    0.0000 C   0  0  0  0  0  0  0  0  0  0  0  0
   -1.3500   -5.1960    0.0000 Cl  0  0  0  0  0  0  0  0  0  0  0  0
    0.7500   -4.1567    0.0000 C   0  0  0  0  0  0  0  0  0  0  0  0
    1.5000   -2.8577    0.0000 C   0  0  0  0  0  0  0  0  0  0  0  0
    0.7500   -1.5574    0.0000 C   0  0  0  0  0  0  0  0  0  0  0  0
  1  2  1  0
  2  3  1  0
  3  4  2  0
  3  5  1  0
  5  6  1  0
  6  7  2  0
  7  8  1  0
  8  9  2  0
  9 10  1  0
 10 11  2  0
 11 12  1  0
 12 13  2  0
 13  8  1  0
  7 14  1  0
 14 15  2  0
 15 16  1  0
 16 17  1  0
 16 18  2  0
 18 19  1  0
 19 20  2  0
 20  2  1  0
 20 14  1  0
M  END

> <chembl_id>
CHEMBL12

> <chembl_pref_name>
DIAZEPAM

$$$$

     RDKit          2D

 18 20  0  0  0  0  0  0  0  0999 V2000
    0.8042   -0.4667    0.0000 N   0  0  0  0  0  0  0  0  0  0  0  0
    1.0917   -1.1167    0.0000 C   0  0  0  0  0  0  0  0  0  0  0  0
    1.7917   -1.3917    0.0000 C   0  0  0  0  0  0  0  0  0  0  0  0
    4.5917    0.2458    0.0000 N   0  0  0  0  0  0  0  0  0  0  0  0
    3.8792   -1.0000    0.0000 N   0  0  0  0  0  0  0  0  0  0  0  0
    3.8792   -0.1667    0.0000 C   0  0  0  0  0  0  0  0  0  0  0  0
    5.3042   -0.1667    0.0000 C   0  0  0  0  0  0  0  0  0  0  0  0
    2.4542   -1.0042    0.0000 C   0  0  0  0  0  0  0  0  0  0  0  0
    0.9167   -1.9167    0.0000 C   0  0  0  0  0  0  0  0  0  0  0  0
    1.5667   -2.1292    0.0000 C   0  0  0  0  0  0  0  0  0  0  0  0
    3.1667   -1.4167    0.0000 C   0  0  0  0  0  0  0  0  0  0  0  0
    0.4625   -1.6042    0.0000 C   0  0  0  0  0  0  0  0  0  0  0  0
    5.3125   -0.9917    0.0000 O   0  0  0  0  0  0  0  0  0  0  0  0
    2.4542   -0.1750    0.0000 C   0  0  0  0  0  0  0  0  0  0  0  0
    3.1667    0.2375    0.0000 C   0  0  0  0  0  0  0  0  0  0  0  0
    0.2750   -2.2875    0.0000 C   0  0  0  0  0  0  0  0  0  0  0  0
    6.7375   -0.1542    0.0000 Cl  0  0  0  0  0  0  0  0  0  0  0  0
    6.0167    0.2500    0.0000 C   0  0  0  0  0  0  0  0  0  0  0  0
  2  1  1  0
  3  2  1  0
  4  6  1  0
  5 11  2  0
  6 15  2  0
  7  4  1  0
  8  3  1  0
  9  1  1  0
 10  9  1  0
 11  8  1  0
 12  2  1  0
 13  7  2  0
 14  8  2  0
 15 14  1  0
 16  9  1  0
 17 18  1  0
 18  7  1  0
 16 12  1  0
  3 10  1  0
  6  5  1  0
M  END

> <chembl_id>
CHEMBL268176

> <chembl_pref_name>
None

$$$$

     RDKit          2D

 24 26  0  0  0  0  0  0  0  0999 V2000
    4.3500   -4.0917    0.0000 S   0  0  0  0  0  0  0  0  0  0  0  0
    4.3500   -3.2667    0.0000 C   0  0  0  0  0  0  0  0  0  0  0  0
    3.6167   -2.8542    0.0000 C   0  0  0  0  0  0  0  0  0  0  0  0
    3.6167   -2.0250    0.0000 C   0  0  0  0  0  0  0  0  0  0  0  0
    5.0542   -4.5042    0.0000 N   0  0  0  0  0  0  0  0  0  0  0  0
    2.9042   -1.6042    0.0000 C   0  0  0  0  0  0  0  0  0  0  0  0
    3.5167   -4.0792    0.0000 O   0  0  0  0  0  0  0  0  0  0  0  0
    4.3417   -4.9250    0.0000 O   0  0  0  0  0  0  0  0  0  0  0  0
    2.9042   -0.7792    0.0000 N   0  0  0  0  0  0  0  0  0  0  0  0
    5.7792   -4.0792    0.0000 C   0  0  0  0  0  0  0  0  0  0  0  0
    7.2042   -3.2417    0.0000 C   0  0  0  0  0  0  0  0  0  0  0  0
    7.9250   -2.8292    0.0000 Cl  0  0  0  0  0  0  0  0  0  0  0  0
    5.0542   -2.8500    0.0000 C   0  0  0  0  0  0  0  0  0  0  0  0
    2.9042   -3.2667    0.0000 C   0  0  0  0  0  0  0  0  0  0  0  0
    4.3417   -1.6042    0.0000 C   0  0  0  0  0  0  0  0  0  0  0  0
    6.4917   -4.5000    0.0000 C   0  0  0  0  0  0  0  0  0  0  0  0
    5.7667   -3.2542    0.0000 C   0  0  0  0  0  0  0  0  0  0  0  0
    6.4875   -2.8375    0.0000 C   0  0  0  0  0  0  0  0  0  0  0  0
    7.2042   -4.0792    0.0000 C   0  0  0  0  0  0  0  0  0  0  0  0
    2.1917   -2.0250    0.0000 C   0  0  0  0  0  0  0  0  0  0  0  0
    5.0542   -2.0167    0.0000 C   0  0  0  0  0  0  0  0  0  0  0  0
    2.1917   -2.8542    0.0000 C   0  0  0  0  0  0  0  0  0  0  0  0
    2.1792   -0.3625    0.0000 C   0  0  0  0  0  0  0  0  0  0  0  0
    3.6167   -0.3542    0.0000 C   0  0  0  0  0  0  0  0  0  0  0  0
  2  1  1  0
  3  2  1  0
  4  3  2  0
  5  1  1  0
  6  4  1  0
  7  1  2  0
  8  1  2  0
  9  6  1  0
 10  5  1  0
 11 18  2  0
 12 11  1  0
 13  2  2  0
 14  3  1  0
 15 21  2  0
 16 10  1  0
 17 10  2  0
 18 17  1  0
 19 16  2  0
 20 22  1  0
 21 13  1  0
 22 14  2  0
 23  9  1  0
 24  9  1  0
 11 19  1  0
 15  4  1  0
 20  6  2  0
M  END

> <chembl_id>
CHEMBL6778

> <chembl_pref_name>
None

$$$$

     RDKit          2D

 21 22  0  0  1  0  0  0  0  0999 V2000
    6.0917   -5.2375    0.0000 C   0  0  0  0  0  0  0  0  0  0  0  0
    5.6042   -5.5875    0.0000 N   0  0  0  0  0  0  0  0  0  0  0  0
    6.5792   -5.5875    0.0000 O   0  0  0  0  0  0  0  0  0  0  0  0
    5.0417   -5.4042    0.0000 C   0  0  0  0  0  0  0  0  0  0  0  0
    6.3917   -6.1625    0.0000 C   0  0  0  0  0  0  0  0  0  0  0  0
    5.7917   -6.1625    0.0000 C   0  0  0  0  0  0  0  0  0  0  0  0
    6.0917   -4.6375    0.0000 O   0  0  0  0  0  0  0  0  0  0  0  0
    6.8542   -7.6792    0.0000 C   0  0  0  0  0  0  0  0  0  0  0  0
    3.9000   -5.0292    0.0000 C   0  0  0  0  0  0  0  0  0  0  0  0
    3.3292   -4.8500    0.0000 C   0  0  0  0  0  0  0  0  0  0  0  0
    6.5042   -7.1917    0.0000 N   0  0  0  0  0  0  0  0  0  0  0  0
    6.6125   -8.2292    0.0000 O   0  0  0  0  0  0  0  0  0  0  0  0
    4.9167   -4.8167    0.0000 C   0  0  0  0  0  0  0  0  0  0  0  0
    4.5917   -5.8042    0.0000 C   0  0  0  0  0  0  0  0  0  0  0  0
    3.2042   -4.2542    0.0000 O   0  0  0  0  0  0  0  0  0  0  0  0
    4.3417   -4.6292    0.0000 C   0  0  0  0  0  0  0  0  0  0  0  0
    4.0250   -5.6167    0.0000 C   0  0  0  0  0  0  0  0  0  0  0  0
    6.7417   -6.6417    0.0000 C   0  0  0  0  0  0  0  0  0  0  0  0
    7.4500   -7.6167    0.0000 C   0  0  0  0  0  0  0  0  0  0  0  0
    2.8792   -5.2500    0.0000 C   0  0  0  0  0  0  0  0  0  0  0  0
    6.9917   -6.1625    0.0000 H   0  0  0  0  0  0  0  0  0  0  0  0
  2  1  1  0
  3  1  1  0
  4  2  1  0
  5  3  1  0
  6  2  1  0
  7  1  2  0
  8 11  1  0
  9 17  1  0
 10  9  1  0
 11 18  1  0
 12  8  2  0
 13  4  2  0
 14  4  1  0
 15 10  2  0
 16 13  1  0
 17 14  2  0
  5 18  1  1
 19  8  1  0
 20 10  1  0
  5 21  1  6
  6  5  1  0
 16  9  2  0
M  END

> <chembl_id>
CHEMBL6462

> <chembl_pref_name>
DUP-721

$$$$

     RDKit          2D

 17 18  0  0  0  0  0  0  0  0999 V2000
    5.4500   -3.5917    0.0000 C   0  0  0  0  0  0  0  0  0  0  0  0
    4.0292   -3.5917    0.0000 N   0  0  0  0  0  0  0  0  0  0  0  0
    4.0292   -4.4167    0.0000 N   0  0  0  0  0  0  0  0  0  0  0  0
    5.4500   -4.4167    0.0000 C   0  0  0  0  0  0  0  0  0  0  0  0
    4.7375   -3.1750    0.0000 C   0  0  0  0  0  0  0  0  0  0  0  0
    6.1667   -3.1792    0.0000 C   0  0  0  0  0  0  0  0  0  0  0  0
    4.7375   -4.8250    0.0000 C   0  0  0  0  0  0  0  0  0  0  0  0
    4.7375   -5.6500    0.0000 C   0  0  0  0  0  0  0  0  0  0  0  0
    6.1667   -2.3542    0.0000 O   0  0  0  0  0  0  0  0  0  0  0  0
    5.4500   -6.0542    0.0000 C   0  0  0  0  0  0  0  0  0  0  0  0
    4.0167   -6.0542    0.0000 C   0  0  0  0  0  0  0  0  0  0  0  0
    6.8792   -3.5917    0.0000 N   0  0  0  0  0  0  0  0  0  0  0  0
    4.7375   -2.3500    0.0000 Cl  0  0  0  0  0  0  0  0  0  0  0  0
    4.7375   -7.2917    0.0000 C   0  0  0  0  0  0  0  0  0  0  0  0
    5.4542   -6.8792    0.0000 C   0  0  0  0  0  0  0  0  0  0  0  0
    4.0167   -6.8792    0.0000 C   0  0  0  0  0  0  0  0  0  0  0  0
    4.7417   -8.1250    0.0000 Br  0  0  0  0  0  0  0  0  0  0  0  0
  2  5  2  0
  3  2  1  0
  4  1  2  0
  5  1  1  0
  6  1  1  0
  7  4  1  0
  8  7  1  0
  9  6  2  0
 10  8  1  0
 11  8  2  0
 12  6  1  0
 13  5  1  0
 14 16  2  0
 15 10  2  0
 16 11  1  0
 17 14  1  0
  3  7  2  0
 15 14  1  0
M  END

> <chembl_id>
CHEMBL268454

> <chembl_pref_name>
None

$$$$

     RDKit          2D

 28 30  0  0  0  0  0  0  0  0999 V2000
    5.4042   -2.1250    0.0000 S   0  0  0  0  0  0  0  0  0  0  0  0
   -1.7458   -2.1667    0.0000 S   0  0  0  0  0  0  0  0  0  0  0  0
   -1.0333   -0.9250    0.0000 C   0  0  0  0  0  0  0  0  0  0  0  0
    1.8250   -0.9042    0.0000 C   0  0  0  0  0  0  0  0  0  0  0  0
   -1.7458   -0.5125    0.0000 C   0  0  0  0  0  0  0  0  0  0  0  0
   -1.0333   -1.7500    0.0000 C   0  0  0  0  0  0  0  0  0  0  0  0
   -2.4583   -1.7542    0.0000 C   0  0  0  0  0  0  0  0  0  0  0  0
    4.6792   -1.7167    0.0000 C   0  0  0  0  0  0  0  0  0  0  0  0
    1.1042   -0.5000    0.0000 N   0  0  0  0  0  0  0  0  0  0  0  0
   -2.4583   -0.9250    0.0000 C   0  0  0  0  0  0  0  0  0  0  0  0
    6.1167   -1.7042    0.0000 O   0  0  0  0  0  0  0  0  0  0  0  0
    5.4000   -1.3000    0.0000 O   0  0  0  0  0  0  0  0  0  0  0  0
    2.5375   -0.4917    0.0000 N   0  0  0  0  0  0  0  0  0  0  0  0
    1.8292   -1.7292    0.0000 S   0  0  0  0  0  0  0  0  0  0  0  0
   -0.3208   -0.5042    0.0000 C   0  0  0  0  0  0  0  0  0  0  0  0
    5.4125   -2.9500    0.0000 N   0  0  0  0  0  0  0  0  0  0  0  0
    0.3917   -0.9167    0.0000 C   0  0  0  0  0  0  0  0  0  0  0  0
   -0.3125   -2.1625    0.0000 C   0  0  0  0  0  0  0  0  0  0  0  0
    3.9667   -2.1292    0.0000 C   0  0  0  0  0  0  0  0  0  0  0  0
    4.6750   -0.8875    0.0000 C   0  0  0  0  0  0  0  0  0  0  0  0
    3.2542   -0.9000    0.0000 C   0  0  0  0  0  0  0  0  0  0  0  0
    0.4000   -1.7417    0.0000 C   0  0  0  0  0  0  0  0  0  0  0  0
    3.2542   -1.7250    0.0000 C   0  0  0  0  0  0  0  0  0  0  0  0
    3.9542   -0.4792    0.0000 C   0  0  0  0  0  0  0  0  0  0  0  0
   -2.3333    0.0750    0.0000 C   0  0  0  0  0  0  0  0  0  0  0  0
   -1.1625    0.0750    0.0000 C   0  0  0  0  0  0  0  0  0  0  0  0
   -3.1750   -2.1667    0.0000 C   0  0  0  0  0  0  0  0  0  0  0  0
   -3.1750   -1.3417    0.0000 C   0  0  0  0  0  0  0  0  0  0  0  0
  2  6  1  0
  3 15  2  0
  4 13  2  0
  5  3  1  0
  6 18  2  0
  7  2  1  0
  8  1  1  0
  9  4  1  0
 10  5  1  0
 11  1  2  0
 12  1  2  0
 13 21  1  0
 14  4  1  0
 15 17  1  0
 16  1  1  0
 17  9  1  0
 18 22  1  0
 19  8  2  0
 20  8  1  0
 21 24  1  0
 22 17  2  0
 23 19  1  0
 24 20  2  0
 25  5  1  0
 26  5  1  0
 27  7  1  0
 28  7  1  0
 21 23  2  0
  3  6  1  0
 10  7  1  0
M  END

> <chembl_id>
CHEMBL6524

> <chembl_pref_name>
None

$$$$

     RDKit          2D

 26 28  0  0  0  0  0  0  0  0999 V2000
   11.2375   -3.4542    0.0000 S   0  0  0  0  0  0  0  0  0  0  0  0
   11.2417    1.5083    0.0000 C   0  0  0  0  0  0  0  0  0  0  0  0
    9.8167    1.5083    0.0000 N   0  0  0  0  0  0  0  0  0  0  0  0
    9.8167    0.6833    0.0000 N   0  0  0  0  0  0  0  0  0  0  0  0
   11.2417    0.6833    0.0000 C   0  0  0  0  0  0  0  0  0  0  0  0
   10.5292    1.9208    0.0000 C   0  0  0  0  0  0  0  0  0  0  0  0
   10.5167   -3.0417    0.0000 N   0  0  0  0  0  0  0  0  0  0  0  0
   11.9667    1.9333    0.0000 C   0  0  0  0  0  0  0  0  0  0  0  0
   10.5292    0.2708    0.0000 C   0  0  0  0  0  0  0  0  0  0  0  0
   10.8167   -4.1750    0.0000 O   0  0  0  0  0  0  0  0  0  0  0  0
   11.6542   -2.7417    0.0000 O   0  0  0  0  0  0  0  0  0  0  0  0
   11.9542   -3.8792    0.0000 C   0  0  0  0  0  0  0  0  0  0  0  0
   10.5292   -0.5625    0.0000 C   0  0  0  0  0  0  0  0  0  0  0  0
   11.9542    2.7708    0.0000 O   0  0  0  0  0  0  0  0  0  0  0  0
   10.5292   -2.2167    0.0000 C   0  0  0  0  0  0  0  0  0  0  0  0
    9.8167   -0.9750    0.0000 C   0  0  0  0  0  0  0  0  0  0  0  0
   11.2500   -0.9750    0.0000 C   0  0  0  0  0  0  0  0  0  0  0  0
   12.6917    1.5250    0.0000 N   0  0  0  0  0  0  0  0  0  0  0  0
   10.5292    2.7458    0.0000 Cl  0  0  0  0  0  0  0  0  0  0  0  0
    9.8167   -1.8042    0.0000 C   0  0  0  0  0  0  0  0  0  0  0  0
   11.2500   -1.8042    0.0000 C   0  0  0  0  0  0  0  0  0  0  0  0
   11.9417   -4.7042    0.0000 C   0  0  0  0  0  0  0  0  0  0  0  0
   12.6750   -3.4667    0.0000 C   0  0  0  0  0  0  0  0  0  0  0  0
   13.3917   -3.8917    0.0000 C   0  0  0  0  0  0  0  0  0  0  0  0
   12.6542   -5.1167    0.0000 C   0  0  0  0  0  0  0  0  0  0  0  0
   13.3875   -4.7167    0.0000 C   0  0  0  0  0  0  0  0  0  0  0  0
  2  5  2  0
  3  4  1  0
  4  9  2  0
  5  9  1  0
  6  2  1  0
  7  1  1  0
  8  2  1  0
  9 13  1  0
 10  1  2  0
 11  1  2  0
 12  1  1  0
 13 17  1  0
 14  8  2  0
 15  7  1  0
 16 20  1  0
 17 21  2  0
 18  8  1  0
 19  6  1  0
 20 15  2  0
 21 15  1  0
 22 12  2  0
 23 12  1  0
 24 23  2  0
 25 22  1  0
 26 24  1  0
 25 26  2  0
 13 16  2  0
  3  6  2  0
M  END

> <chembl_id>
CHEMBL6521

> <chembl_pref_name>
None

$$$$

     RDKit          2D

 24 26  0  0  0  0  0  0  0  0999 V2000
    8.3653    0.2284    0.0000 C   0  0  0  0  0  0  0  0  0  0  0  0
    7.9799   -0.5010    0.0000 C   0  0  0  0  0  0  0  0  0  0  0  0
    8.4188   -1.1972    0.0000 C   0  0  0  0  0  0  0  0  0  0  0  0
    9.1851    0.2619    0.0000 C   0  0  0  0  0  0  0  0  0  0  0  0
    9.2457   -1.1641    0.0000 C   0  0  0  0  0  0  0  0  0  0  0  0
    9.6262   -0.4314    0.0000 C   0  0  0  0  0  0  0  0  0  0  0  0
    9.5856   -1.9229    0.0000 C   0  0  0  0  0  0  0  0  0  0  0  0
   10.3904   -2.1293    0.0000 N   0  0  0  0  0  0  0  0  0  0  0  0
   11.0518   -1.6271    0.0000 C   0  0  0  0  0  0  0  0  0  0  0  0
    9.0555   -2.5519    0.0000 O   0  0  0  0  0  0  0  0  0  0  0  0
   10.5532   -2.9356    0.0000 C   0  0  0  0  0  0  0  0  0  0  0  0
   10.4393   -0.2670    0.0000 N   0  0  0  0  0  0  0  0  0  0  0  0
   11.0768   -0.7991    0.0000 C   0  0  0  0  0  0  0  0  0  0  0  0
   11.7800   -0.3573    0.0000 C   0  0  0  0  0  0  0  0  0  0  0  0
   11.5770    0.4481    0.0000 N   0  0  0  0  0  0  0  0  0  0  0  0
   10.7483    0.5039    0.0000 C   0  0  0  0  0  0  0  0  0  0  0  0
   12.5450   -0.6634    0.0000 C   0  0  0  0  0  0  0  0  0  0  0  0
   12.6615   -1.4777    0.0000 O   0  0  0  0  0  0  0  0  0  0  0  0
   13.1918   -0.1554    0.0000 O   0  0  0  0  0  0  0  0  0  0  0  0
   13.4249   -1.7839    0.0000 C   0  0  0  0  0  0  0  0  0  0  0  0
   13.5416   -2.5981    0.0000 C   0  0  0  0  0  0  0  0  0  0  0  0
    7.1541   -0.5089    0.0000 N   0  0  0  0  0  0  0  0  0  0  0  0
    6.5708    0.0760    0.0000 N   0  0  0  0  0  0  0  0  0  0  0  0
    5.9899    0.6582    0.0000 N   0  0  0  0  0  0  0  0  0  0  0  0
  8 11  1  0
 12 13  1  0
  2  3  1  0
  5  6  1  0
  6 12  1  0
  3  5  2  0
  5  7  1  0
 13 14  2  0
 14 15  1  0
 15 16  2  0
 16 12  1  0
  1  2  2  0
  7  8  1  0
  6  4  2  0
 17 18  1  0
 17 19  2  0
 14 17  1  0
 13  9  1  0
 18 20  1  0
  8  9  1  0
 20 21  1  0
  4  1  1  0
  2 22  1  0
  7 10  2  0
 22 23  2  0
 23 24  2  0
M  CHG  2  23   1  24  -1
M  END

> <chembl_id>
CHEMBL6597

> <chembl_pref_name>
Ro-154513

$$$$

     RDKit          2D

 26 28  0  0  0  0  0  0  0  0999 V2000
    4.3875   -1.3542    0.0000 C   0  0  0  0  0  0  0  0  0  0  0  0
    4.9167   -0.7292    0.0000 C   0  0  0  0  0  0  0  0  0  0  0  0
    3.6167   -1.0375    0.0000 N   0  0  0  0  0  0  0  0  0  0  0  0
    2.7542   -2.2500    0.0000 C   0  0  0  0  0  0  0  0  0  0  0  0
    4.4917   -0.0292    0.0000 N   0  0  0  0  0  0  0  0  0  0  0  0
    3.3000   -2.8625    0.0000 C   0  0  0  0  0  0  0  0  0  0  0  0
    2.9000   -1.4292    0.0000 C   0  0  0  0  0  0  0  0  0  0  0  0
    4.1125   -2.8125    0.0000 N   0  0  0  0  0  0  0  0  0  0  0  0
    3.6875   -0.2167    0.0000 C   0  0  0  0  0  0  0  0  0  0  0  0
    5.7417   -0.7792    0.0000 C   0  0  0  0  0  0  0  0  0  0  0  0
    4.5917   -2.1417    0.0000 C   0  0  0  0  0  0  0  0  0  0  0  0
   -0.2000   -2.5875    0.0000 N   0  0  0  0  0  0  0  0  0  0  0  0
   -0.9708   -2.8750    0.0000 N   0  0  0  0  0  0  0  0  0  0  0  0
    6.1125   -1.5250    0.0000 O   0  0  0  0  0  0  0  0  0  0  0  0
    1.9792   -2.5375    0.0000 C   0  0  0  0  0  0  0  0  0  0  0  0
    2.2542   -0.9042    0.0000 C   0  0  0  0  0  0  0  0  0  0  0  0
    0.5750   -2.2917    0.0000 N   0  0  0  0  0  0  0  0  0  0  0  0
    2.9875   -3.6292    0.0000 O   0  0  0  0  0  0  0  0  0  0  0  0
    6.2042   -0.0917    0.0000 O   0  0  0  0  0  0  0  0  0  0  0  0
    6.9292   -1.5750    0.0000 C   0  0  0  0  0  0  0  0  0  0  0  0
    1.3417   -2.0125    0.0000 C   0  0  0  0  0  0  0  0  0  0  0  0
    1.4792   -1.1917    0.0000 C   0  0  0  0  0  0  0  0  0  0  0  0
    4.5042   -3.5417    0.0000 C   0  0  0  0  0  0  0  0  0  0  0  0
    7.7542   -1.5750    0.0000 C   0  0  0  0  0  0  0  0  0  0  0  0
    7.3000   -2.3167    0.0000 C   0  0  0  0  0  0  0  0  0  0  0  0
    7.3917   -0.8875    0.0000 C   0  0  0  0  0  0  0  0  0  0  0  0
  2  1  2  0
  3  1  1  0
  4  7  2  0
  5  2  1  0
  6  8  1  0
  7  3  1  0
  8 11  1  0
  9  3  1  0
 10  2  1  0
 11  1  1  0
 12 17  2  0
 13 12  2  0
 14 10  1  0
 15  4  1  0
 16  7  1  0
 17 21  1  0
 18  6  2  0
 19 10  2  0
 20 14  1  0
 21 22  1  0
 22 16  2  0
 23  8  1  0
 24 20  1  0
 25 20  1  0
 26 20  1  0
  5  9  2  0
  4  6  1  0
 21 15  2  0
M  CHG  2  12   1  13  -1
M  END

> <chembl_id>
CHEMBL6421

> <chembl_pref_name>
None

$$$$

     RDKit          2D

 24 26  0  0  0  0  0  0  0  0999 V2000
    4.3250   -4.0917    0.0000 S   0  0  0  0  0  0  0  0  0  0  0  0
    4.3250   -3.2667    0.0000 C   0  0  0  0  0  0  0  0  0  0  0  0
    5.0375   -4.5042    0.0000 N   0  0  0  0  0  0  0  0  0  0  0  0
    3.6042   -2.8500    0.0000 C   0  0  0  0  0  0  0  0  0  0  0  0
    3.6042   -2.0167    0.0000 C   0  0  0  0  0  0  0  0  0  0  0  0
    2.8792   -1.6042    0.0000 C   0  0  0  0  0  0  0  0  0  0  0  0
    3.4917   -4.0917    0.0000 O   0  0  0  0  0  0  0  0  0  0  0  0
    4.3167   -4.9250    0.0000 O   0  0  0  0  0  0  0  0  0  0  0  0
    7.1875   -4.0792    0.0000 N   0  0  0  0  0  0  0  0  0  0  0  0
    7.1875   -3.2417    0.0000 C   0  0  0  0  0  0  0  0  0  0  0  0
    2.8792   -0.7667    0.0000 N   0  0  0  0  0  0  0  0  0  0  0  0
    5.7500   -4.0917    0.0000 C   0  0  0  0  0  0  0  0  0  0  0  0
    6.4792   -4.4917    0.0000 C   0  0  0  0  0  0  0  0  0  0  0  0
    7.8917   -2.8292    0.0000 Br  0  0  0  0  0  0  0  0  0  0  0  0
    6.4625   -2.8292    0.0000 C   0  0  0  0  0  0  0  0  0  0  0  0
    5.7417   -3.2542    0.0000 C   0  0  0  0  0  0  0  0  0  0  0  0
    5.0417   -2.8500    0.0000 C   0  0  0  0  0  0  0  0  0  0  0  0
    2.8792   -3.2667    0.0000 C   0  0  0  0  0  0  0  0  0  0  0  0
    4.3167   -1.6042    0.0000 C   0  0  0  0  0  0  0  0  0  0  0  0
    2.1667   -2.0167    0.0000 C   0  0  0  0  0  0  0  0  0  0  0  0
    5.0417   -2.0167    0.0000 C   0  0  0  0  0  0  0  0  0  0  0  0
    2.1667   -2.8500    0.0000 C   0  0  0  0  0  0  0  0  0  0  0  0
    2.1625   -0.3542    0.0000 C   0  0  0  0  0  0  0  0  0  0  0  0
    3.6042   -0.3542    0.0000 C   0  0  0  0  0  0  0  0  0  0  0  0
  2  1  1  0
  3  1  1  0
  4  2  1  0
  5  4  2  0
  6  5  1  0
  7  1  2  0
  8  1  2  0
  9 13  2  0
 10 15  2  0
 11  6  1  0
 12  3  1  0
 13 12  1  0
 14 10  1  0
 15 16  1  0
 16 12  2  0
 17  2  2  0
 18  4  1  0
 19 21  2  0
 20 22  1  0
 21 17  1  0
 22 18  2  0
 23 11  1  0
 24 11  1  0
 19  5  1  0
 10  9  1  0
 20  6  2  0
M  END

> <chembl_id>
CHEMBL266277

> <chembl_pref_name>
None

$$$$

     RDKit          2D

 24 26  0  0  0  0  0  0  0  0999 V2000
    4.3542   -4.0917    0.0000 S   0  0  0  0  0  0  0  0  0  0  0  0
    5.0667   -4.5042    0.0000 N   0  0  0  0  0  0  0  0  0  0  0  0
    4.3542   -3.2667    0.0000 C   0  0  0  0  0  0  0  0  0  0  0  0
    3.6375   -2.8542    0.0000 C   0  0  0  0  0  0  0  0  0  0  0  0
    3.6375   -2.0250    0.0000 C   0  0  0  0  0  0  0  0  0  0  0  0
    5.7792   -4.0792    0.0000 C   0  0  0  0  0  0  0  0  0  0  0  0
    2.9125   -1.6042    0.0000 C   0  0  0  0  0  0  0  0  0  0  0  0
    5.7792   -3.2542    0.0000 N   0  0  0  0  0  0  0  0  0  0  0  0
    3.5292   -4.0792    0.0000 O   0  0  0  0  0  0  0  0  0  0  0  0
    4.3417   -4.9250    0.0000 O   0  0  0  0  0  0  0  0  0  0  0  0
    7.2167   -4.0792    0.0000 N   0  0  0  0  0  0  0  0  0  0  0  0
    7.2167   -3.2417    0.0000 C   0  0  0  0  0  0  0  0  0  0  0  0
    2.9125   -0.7792    0.0000 N   0  0  0  0  0  0  0  0  0  0  0  0
    6.5125   -4.5000    0.0000 C   0  0  0  0  0  0  0  0  0  0  0  0
    6.4917   -2.8375    0.0000 C   0  0  0  0  0  0  0  0  0  0  0  0
    7.9292   -2.8292    0.0000 Cl  0  0  0  0  0  0  0  0  0  0  0  0
    5.0750   -2.8500    0.0000 C   0  0  0  0  0  0  0  0  0  0  0  0
    2.9125   -3.2667    0.0000 C   0  0  0  0  0  0  0  0  0  0  0  0
    4.3417   -1.6042    0.0000 C   0  0  0  0  0  0  0  0  0  0  0  0
    2.1917   -2.0250    0.0000 C   0  0  0  0  0  0  0  0  0  0  0  0
    5.0750   -2.0167    0.0000 C   0  0  0  0  0  0  0  0  0  0  0  0
    2.1917   -2.8542    0.0000 C   0  0  0  0  0  0  0  0  0  0  0  0
    2.1792   -0.3625    0.0000 C   0  0  0  0  0  0  0  0  0  0  0  0
    3.6375   -0.3542    0.0000 C   0  0  0  0  0  0  0  0  0  0  0  0
  2  1  1  0
  3  1  1  0
  4  3  1  0
  5  4  2  0
  6  2  1  0
  7  5  1  0
  8  6  2  0
  9  1  2  0
 10  1  2  0
 11 14  2  0
 12 11  1  0
 13  7  1  0
 14  6  1  0
 15  8  1  0
 16 12  1  0
 17  3  2  0
 18  4  1  0
 19 21  2  0
 20 22  1  0
 21 17  1  0
 22 18  2  0
 23 13  1  0
 24 13  1  0
 19  5  1  0
 12 15  2  0
 20  7  2  0
M  END

> <chembl_id>
CHEMBL6553

> <chembl_pref_name>
None

$$$$

     RDKit          2D

 17 18  0  0  0  0  0  0  0  0999 V2000
    5.4500   -3.5917    0.0000 C   0  0  0  0  0  0  0  0  0  0  0  0
    4.0292   -3.5917    0.0000 N   0  0  0  0  0  0  0  0  0  0  0  0
    4.0292   -4.4167    0.0000 N   0  0  0  0  0  0  0  0  0  0  0  0
    5.4500   -4.4167    0.0000 C   0  0  0  0  0  0  0  0  0  0  0  0
    4.7375   -3.1750    0.0000 C   0  0  0  0  0  0  0  0  0  0  0  0
    6.1667   -3.1792    0.0000 C   0  0  0  0  0  0  0  0  0  0  0  0
    4.7375   -4.8250    0.0000 C   0  0  0  0  0  0  0  0  0  0  0  0
    4.7375   -5.6500    0.0000 C   0  0  0  0  0  0  0  0  0  0  0  0
    6.1667   -2.3542    0.0000 O   0  0  0  0  0  0  0  0  0  0  0  0
    5.4500   -6.0542    0.0000 C   0  0  0  0  0  0  0  0  0  0  0  0
    4.0167   -6.0542    0.0000 C   0  0  0  0  0  0  0  0  0  0  0  0
    6.8792   -3.5917    0.0000 N   0  0  0  0  0  0  0  0  0  0  0  0
    4.7375   -2.3500    0.0000 Cl  0  0  0  0  0  0  0  0  0  0  0  0
    4.7375   -7.2917    0.0000 C   0  0  0  0  0  0  0  0  0  0  0  0
    5.4542   -6.8792    0.0000 C   0  0  0  0  0  0  0  0  0  0  0  0
    4.0167   -6.8792    0.0000 C   0  0  0  0  0  0  0  0  0  0  0  0
    4.7417   -8.1250    0.0000 Cl  0  0  0  0  0  0  0  0  0  0  0  0
  2  5  2  0
  3  2  1  0
  4  1  2  0
  5  1  1  0
  6  1  1  0
  7  4  1  0
  8  7  1  0
  9  6  2  0
 10  8  1  0
 11  8  2  0
 12  6  1  0
 13  5  1  0
 14 16  2  0
 15 10  2  0
 16 11  1  0
 17 14  1  0
  3  7  2  0
 15 14  1  0
M  END

> <chembl_id>
CHEMBL6582

> <chembl_pref_name>
None

$$$$

     RDKit          2D

 18 19  0  0  0  0  0  0  0  0999 V2000
    5.4500   -3.5917    0.0000 C   0  0  0  0  0  0  0  0  0  0  0  0
    4.0292   -3.5917    0.0000 N   0  0  0  0  0  0  0  0  0  0  0  0
    4.0292   -4.4167    0.0000 N   0  0  0  0  0  0  0  0  0  0  0  0
    5.4500   -4.4167    0.0000 C   0  0  0  0  0  0  0  0  0  0  0  0
    4.7375   -3.1750    0.0000 C   0  0  0  0  0  0  0  0  0  0  0  0
    6.1667   -3.1792    0.0000 C   0  0  0  0  0  0  0  0  0  0  0  0
    4.7375   -4.8250    0.0000 C   0  0  0  0  0  0  0  0  0  0  0  0
    4.7375   -5.6500    0.0000 C   0  0  0  0  0  0  0  0  0  0  0  0
    5.4542   -6.8792    0.0000 C   0  0  0  0  0  0  0  0  0  0  0  0
    5.4500   -6.0542    0.0000 C   0  0  0  0  0  0  0  0  0  0  0  0
    4.7375   -7.2917    0.0000 C   0  0  0  0  0  0  0  0  0  0  0  0
    6.1667   -2.3542    0.0000 O   0  0  0  0  0  0  0  0  0  0  0  0
    4.0167   -6.0542    0.0000 C   0  0  0  0  0  0  0  0  0  0  0  0
    4.0167   -6.8792    0.0000 C   0  0  0  0  0  0  0  0  0  0  0  0
    6.8792   -3.5917    0.0000 N   0  0  0  0  0  0  0  0  0  0  0  0
    4.7375   -2.3500    0.0000 Cl  0  0  0  0  0  0  0  0  0  0  0  0
    6.1667   -7.2917    0.0000 Cl  0  0  0  0  0  0  0  0  0  0  0  0
    4.7417   -8.1250    0.0000 F   0  0  0  0  0  0  0  0  0  0  0  0
  2  5  2  0
  3  2  1  0
  4  1  2  0
  5  1  1  0
  6  1  1  0
  7  4  1  0
  8  7  1  0
  9 10  2  0
 10  8  1  0
 11 14  2  0
 12  6  2  0
 13  8  2  0
 14 13  1  0
 15  6  1  0
 16  5  1  0
 17  9  1  0
 18 11  1  0
  3  7  2  0
  9 11  1  0
M  END

> <chembl_id>
CHEMBL6423

> <chembl_pref_name>
None

$$$$

     RDKit          2D

 24 25  0  0  0  0  0  0  0  0999 V2000
    3.7792   -1.8917    0.0000 C   0  0  0  0  0  0  0  0  0  0  0  0
    4.3000   -2.1875    0.0000 C   0  0  0  0  0  0  0  0  0  0  0  0
    3.7750   -1.2917    0.0000 C   0  0  0  0  0  0  0  0  0  0  0  0
    4.3042   -2.7875    0.0000 C   0  0  0  0  0  0  0  0  0  0  0  0
    4.8167   -1.8875    0.0000 C   0  0  0  0  0  0  0  0  0  0  0  0
    3.2625   -2.1917    0.0000 C   0  0  0  0  0  0  0  0  0  0  0  0
    4.8250   -3.0875    0.0000 F   0  0  0  0  0  0  0  0  0  0  0  0
    3.3500   -0.8667    0.0000 F   0  0  0  0  0  0  0  0  0  0  0  0
    4.1917   -0.8667    0.0000 F   0  0  0  0  0  0  0  0  0  0  0  0
    3.1750   -1.2875    0.0000 F   0  0  0  0  0  0  0  0  0  0  0  0
    3.8792   -3.2042    0.0000 F   0  0  0  0  0  0  0  0  0  0  0  0
    4.3000   -3.3875    0.0000 F   0  0  0  0  0  0  0  0  0  0  0  0
    4.8167   -1.2792    0.0000 C   0  0  0  0  0  0  0  0  0  0  0  0
    2.7417   -1.8917    0.0000 C   0  0  0  0  0  0  0  0  0  0  0  0
    5.3375   -2.1875    0.0000 C   0  0  0  0  0  0  0  0  0  0  0  0
    3.2625   -2.8000    0.0000 C   0  0  0  0  0  0  0  0  0  0  0  0
    2.2250   -2.8000    0.0000 C   0  0  0  0  0  0  0  0  0  0  0  0
    5.8542   -1.2792    0.0000 C   0  0  0  0  0  0  0  0  0  0  0  0
    2.2250   -2.2000    0.0000 C   0  0  0  0  0  0  0  0  0  0  0  0
    5.8542   -1.8875    0.0000 C   0  0  0  0  0  0  0  0  0  0  0  0
    2.7417   -3.1000    0.0000 C   0  0  0  0  0  0  0  0  0  0  0  0
    5.3375   -0.9792    0.0000 C   0  0  0  0  0  0  0  0  0  0  0  0
    1.7042   -3.1000    0.0000 O   0  0  0  0  0  0  0  0  0  0  0  0
    6.3750   -0.9792    0.0000 O   0  0  0  0  0  0  0  0  0  0  0  0
  2  1  2  0
  3  1  1  0
  4  2  1  0
  5  2  1  0
  6  1  1  0
  7  4  1  0
  8  3  1  0
  9  3  1  0
 10  3  1  0
 11  4  1  0
 12  4  1  0
 13  5  2  0
 14  6  2  0
 15  5  1  0
 16  6  1  0
 17 21  1  0
 18 20  1  0
 19 14  1  0
 20 15  2  0
 21 16  2  0
 22 13  1  0
 23 17  1  0
 24 18  1  0
 17 19  2  0
 22 18  2  0
M  END

> <chembl_id>
CHEMBL6790

> <chembl_pref_name>
None

$$$$

     RDKit          2D

 75 76  0  0  1  0  0  0  0  0999 V2000
    9.0500   -4.7917    0.0000 N   0  0  0  0  0  0  0  0  0  0  0  0
    8.3417   -4.3667    0.0000 C   0  0  0  0  0  0  0  0  0  0  0  0
   10.0042   -3.6792    0.0000 C   0  0  0  0  0  0  0  0  0  0  0  0
   14.3917   -1.2667    0.0000 N   0  0  0  0  0  0  0  0  0  0  0  0
   12.0875    0.4208    0.0000 N   0  0  0  0  0  0  0  0  0  0  0  0
   -0.9750   -4.5250    0.0000 C   0  0  0  0  0  0  0  0  0  0  0  0
   -0.2458   -4.1292    0.0000 C   0  0  0  0  0  0  0  0  0  0  0  0
    6.1792   -4.7167    0.0000 C   0  0  0  0  0  0  0  0  0  0  0  0
   -1.6750   -4.0917    0.0000 N   0  0  0  0  0  0  0  0  0  0  0  0
    6.9125   -4.3292    0.0000 N   0  0  0  0  0  0  0  0  0  0  0  0
   11.7792   -2.4125    0.0000 C   0  0  0  0  0  0  0  0  0  0  0  0
   12.2667   -1.7417    0.0000 C   0  0  0  0  0  0  0  0  0  0  0  0
    4.7542   -4.6792    0.0000 N   0  0  0  0  0  0  0  0  0  0  0  0
    7.6167   -4.7625    0.0000 C   0  0  0  0  0  0  0  0  0  0  0  0
    9.8125   -4.4792    0.0000 C   0  0  0  0  0  0  0  0  0  0  0  0
   -2.4083   -4.4792    0.0000 C   0  0  0  0  0  0  0  0  0  0  0  0
    4.0500   -4.2417    0.0000 C   0  0  0  0  0  0  0  0  0  0  0  0
   13.5750   -1.1750    0.0000 C   0  0  0  0  0  0  0  0  0  0  0  0
   12.4167   -0.3292    0.0000 C   0  0  0  0  0  0  0  0  0  0  0  0
   10.8000   -3.4417    0.0000 N   0  0  0  0  0  0  0  0  0  0  0  0
   10.9917   -2.6417    0.0000 N   0  0  0  0  0  0  0  0  0  0  0  0
    1.8917   -4.6042    0.0000 C   0  0  0  0  0  0  0  0  0  0  0  0
    0.4542   -4.5625    0.0000 N   0  0  0  0  0  0  0  0  0  0  0  0
    2.6167   -4.2042    0.0000 N   0  0  0  0  0  0  0  0  0  0  0  0
    5.4792   -4.2875    0.0000 C   0  0  0  0  0  0  0  0  0  0  0  0
    3.3250   -4.6417    0.0000 C   0  0  0  0  0  0  0  0  0  0  0  0
   -3.1083   -4.0500    0.0000 C   0  0  0  0  0  0  0  0  0  0  0  0
   13.2417   -0.4167    0.0000 C   0  0  0  0  0  0  0  0  0  0  0  0
    3.3000   -5.4667    0.0000 C   0  0  0  0  0  0  0  0  0  0  0  0
   -3.0875   -3.2250    0.0000 C   0  0  0  0  0  0  0  0  0  0  0  0
   13.0875   -1.8417    0.0000 C   0  0  0  0  0  0  0  0  0  0  0  0
   11.9375   -1.0000    0.0000 C   0  0  0  0  0  0  0  0  0  0  0  0
   -3.8375   -4.4417    0.0000 N   0  0  0  0  0  0  0  0  0  0  0  0
    1.1792   -4.1667    0.0000 C   0  0  0  0  0  0  0  0  0  0  0  0
    4.0042   -5.9000    0.0000 C   0  0  0  0  0  0  0  0  0  0  0  0
   -2.3625   -2.8292    0.0000 C   0  0  0  0  0  0  0  0  0  0  0  0
   -3.8583   -5.2667    0.0000 C   0  0  0  0  0  0  0  0  0  0  0  0
   14.9292   -1.8917    0.0000 O   0  0  0  0  0  0  0  0  0  0  0  0
   12.6792    0.9958    0.0000 O   0  0  0  0  0  0  0  0  0  0  0  0
    8.3667   -3.5417    0.0000 O   0  0  0  0  0  0  0  0  0  0  0  0
   11.2917    0.6500    0.0000 O   0  0  0  0  0  0  0  0  0  0  0  0
   14.6667   -0.4875    0.0000 O   0  0  0  0  0  0  0  0  0  0  0  0
    9.4042   -3.1042    0.0000 O   0  0  0  0  0  0  0  0  0  0  0  0
    1.9542   -2.1167    0.0000 C   0  0  0  0  0  0  0  0  0  0  0  0
   -0.2208   -3.3042    0.0000 O   0  0  0  0  0  0  0  0  0  0  0  0
    6.1625   -5.5417    0.0000 O   0  0  0  0  0  0  0  0  0  0  0  0
   12.1125   -3.1625    0.0000 O   0  0  0  0  0  0  0  0  0  0  0  0
   -2.4250   -5.3125    0.0000 O   0  0  0  0  0  0  0  0  0  0  0  0
    4.0667   -3.4167    0.0000 O   0  0  0  0  0  0  0  0  0  0  0  0
    1.8667   -5.4292    0.0000 O   0  0  0  0  0  0  0  0  0  0  0  0
   -0.9958   -5.3500    0.0000 C   0  0  0  0  0  0  0  0  0  0  0  0
   -2.3375   -2.0042    0.0000 O   0  0  0  0  0  0  0  0  0  0  0  0
    3.9792   -6.7292    0.0000 O   0  0  0  0  0  0  0  0  0  0  0  0
   -4.5833   -5.6667    0.0000 O   0  0  0  0  0  0  0  0  0  0  0  0
    2.6875   -1.7292    0.0000 O   0  0  0  0  0  0  0  0  0  0  0  0
    1.2125   -3.3417    0.0000 C   0  0  0  0  0  0  0  0  0  0  0  0
    7.5917   -5.5875    0.0000 C   0  0  0  0  0  0  0  0  0  0  0  0
    9.1167   -5.6167    0.0000 C   0  0  0  0  0  0  0  0  0  0  0  0
    5.5042   -3.4625    0.0000 C   0  0  0  0  0  0  0  0  0  0  0  0
    1.9375   -2.9417    0.0000 C   0  0  0  0  0  0  0  0  0  0  0  0
   -1.6583   -3.2625    0.0000 O   0  0  0  0  0  0  0  0  0  0  0  0
    4.7292   -5.5042    0.0000 O   0  0  0  0  0  0  0  0  0  0  0  0
    1.2542   -1.6917    0.0000 O   0  0  0  0  0  0  0  0  0  0  0  0
   10.3500   -5.1125    0.0000 C   0  0  0  0  0  0  0  0  0  0  0  0
   -0.2958   -5.7792    0.0000 O   0  0  0  0  0  0  0  0  0  0  0  0
   10.3917   -2.0750    0.0000 C   0  0  0  0  0  0  0  0  0  0  0  0
    9.9167   -5.8167    0.0000 C   0  0  0  0  0  0  0  0  0  0  0  0
   -3.1583   -5.7042    0.0000 C   0  0  0  0  0  0  0  0  0  0  0  0
   -1.7250   -5.7417    0.0000 C   0  0  0  0  0  0  0  0  0  0  0  0
    6.8667   -5.9792    0.0000 C   0  0  0  0  0  0  0  0  0  0  0  0
    8.3000   -6.0167    0.0000 C   0  0  0  0  0  0  0  0  0  0  0  0
    6.2292   -3.0667    0.0000 C   0  0  0  0  0  0  0  0  0  0  0  0
    4.8000   -3.0292    0.0000 C   0  0  0  0  0  0  0  0  0  0  0  0
   10.5792   -1.2750    0.0000 C   0  0  0  0  0  0  0  0  0  0  0  0
   10.0125   -0.8042    0.0000 C   0  0  0  0  0  0  0  0  0  0  0  0
  2  1  1  0
 15  3  1  1
  4 18  1  0
  5 19  1  0
  6  7  1  0
  7 23  1  0
  8 10  1  0
  6  9  1  6
 14 10  1  6
 11 21  1  0
 12 11  1  0
 25 13  1  1
 14  2  1  0
 15  1  1  0
 16  9  1  0
 17 13  1  0
 18 31  1  0
 19 32  2  0
 20  3  1  0
 21 20  1  0
 22 24  1  0
 34 23  1  1
 26 24  1  6
 25  8  1  0
 26 17  1  0
 27 16  1  0
 28 19  1  0
 26 29  1  0
 27 30  1  1
 31 12  2  0
 32 12  1  0
 33 27  1  0
 34 22  1  0
 35 29  1  0
 36 30  1  0
 37 33  1  0
 38  4  1  0
 39  5  1  0
 40  2  2  0
 41  5  2  0
 42  4  2  0
 43  3  2  0
 44 60  1  0
 45  7  2  0
 46  8  2  0
 47 11  2  0
 48 16  2  0
 49 17  2  0
 50 22  2  0
  6 51  1  0
 52 36  2  0
 53 35  2  0
 54 37  2  0
 55 44  2  0
 34 56  1  0
 14 57  1  0
 58  1  1  0
 25 59  1  0
 60 56  1  0
 61 36  1  0
 62 35  1  0
 63 44  1  0
 15 64  1  0
 51 65  1  6
 66 21  1  0
 67 58  1  0
 68 37  1  0
 69 51  1  0
 70 57  1  0
 71 57  1  0
 72 59  1  0
 73 59  1  0
 74 66  1  0
 75 74  1  0
 67 64  1  0
 18 28  2  0
M  CHG  4   4   1   5   1  38  -1  39  -1
M  END

> <chembl_id>
CHEMBL216130

> <chembl_pref_name>
None

$$$$

     RDKit          2D

 69 69  0  0  1  0  0  0  0  0999 V2000
    6.5292   -2.2625    0.0000 N   0  0  0  0  0  0  0  0  0  0  0  0
    5.9417   -1.6792    0.0000 C   0  0  0  0  0  0  0  0  0  0  0  0
    7.7250   -1.3917    0.0000 C   0  0  0  0  0  0  0  0  0  0  0  0
    9.7417   -0.5667    0.0000 C   0  0  0  0  0  0  0  0  0  0  0  0
    3.7625   -1.5250    0.0000 C   0  0  0  0  0  0  0  0  0  0  0  0
    4.5625   -1.3042    0.0000 N   0  0  0  0  0  0  0  0  0  0  0  0
    2.3792   -1.1500    0.0000 N   0  0  0  0  0  0  0  0  0  0  0  0
    5.1417   -1.8917    0.0000 C   0  0  0  0  0  0  0  0  0  0  0  0
    7.3500   -2.1292    0.0000 C   0  0  0  0  0  0  0  0  0  0  0  0
    1.7917   -0.5667    0.0000 C   0  0  0  0  0  0  0  0  0  0  0  0
   10.1417   -2.6792    0.0000 C   0  0  0  0  0  0  0  0  0  0  0  0
   10.1917   -1.2625    0.0000 N   0  0  0  0  0  0  0  0  0  0  0  0
    8.5417   -1.3542    0.0000 N   0  0  0  0  0  0  0  0  0  0  0  0
   10.4792   -4.8417    0.0000 C   0  0  0  0  0  0  0  0  0  0  0  0
   -0.3875   -0.4125    0.0000 C   0  0  0  0  0  0  0  0  0  0  0  0
   10.0417   -5.5417    0.0000 N   0  0  0  0  0  0  0  0  0  0  0  0
   10.5792   -1.9875    0.0000 C   0  0  0  0  0  0  0  0  0  0  0  0
    0.4125   -0.2000    0.0000 N   0  0  0  0  0  0  0  0  0  0  0  0
    3.1792   -0.9375    0.0000 C   0  0  0  0  0  0  0  0  0  0  0  0
   10.4292   -6.2750    0.0000 C   0  0  0  0  0  0  0  0  0  0  0  0
    0.9917   -0.7792    0.0000 C   0  0  0  0  0  0  0  0  0  0  0  0
    8.9167   -0.6167    0.0000 N   0  0  0  0  0  0  0  0  0  0  0  0
   10.5292   -3.4125    0.0000 N   0  0  0  0  0  0  0  0  0  0  0  0
    0.7792   -1.5792    0.0000 C   0  0  0  0  0  0  0  0  0  0  0  0
    9.9917   -6.9792    0.0000 C   0  0  0  0  0  0  0  0  0  0  0  0
   -1.7708   -0.0417    0.0000 N   0  0  0  0  0  0  0  0  0  0  0  0
   10.0917   -4.1167    0.0000 C   0  0  0  0  0  0  0  0  0  0  0  0
    1.3667   -2.1667    0.0000 C   0  0  0  0  0  0  0  0  0  0  0  0
   -0.9750    0.1708    0.0000 C   0  0  0  0  0  0  0  0  0  0  0  0
   -1.9875   -0.8375    0.0000 C   0  0  0  0  0  0  0  0  0  0  0  0
    6.1542   -0.8792    0.0000 O   0  0  0  0  0  0  0  0  0  0  0  0
    7.2667   -0.7000    0.0000 O   0  0  0  0  0  0  0  0  0  0  0  0
    0.2542    1.9833    0.0000 C   0  0  0  0  0  0  0  0  0  0  0  0
   10.1167    0.1708    0.0000 O   0  0  0  0  0  0  0  0  0  0  0  0
    3.5500   -2.3167    0.0000 O   0  0  0  0  0  0  0  0  0  0  0  0
    9.3167   -2.6542    0.0000 O   0  0  0  0  0  0  0  0  0  0  0  0
    2.0042    0.2333    0.0000 O   0  0  0  0  0  0  0  0  0  0  0  0
   -0.6000   -1.2042    0.0000 O   0  0  0  0  0  0  0  0  0  0  0  0
   11.3042   -4.8667    0.0000 O   0  0  0  0  0  0  0  0  0  0  0  0
    9.1667   -6.9500    0.0000 O   0  0  0  0  0  0  0  0  0  0  0  0
    1.1542   -2.9667    0.0000 O   0  0  0  0  0  0  0  0  0  0  0  0
   -2.7833   -1.0500    0.0000 O   0  0  0  0  0  0  0  0  0  0  0  0
    1.0542    2.1958    0.0000 O   0  0  0  0  0  0  0  0  0  0  0  0
   -0.7583    0.9708    0.0000 C   0  0  0  0  0  0  0  0  0  0  0  0
    4.9292   -2.6917    0.0000 C   0  0  0  0  0  0  0  0  0  0  0  0
   10.3792   -7.7042    0.0000 N   0  0  0  0  0  0  0  0  0  0  0  0
    6.4042   -3.0792    0.0000 C   0  0  0  0  0  0  0  0  0  0  0  0
    3.3917   -0.1417    0.0000 C   0  0  0  0  0  0  0  0  0  0  0  0
    0.0417    1.1875    0.0000 C   0  0  0  0  0  0  0  0  0  0  0  0
    9.2667   -4.0875    0.0000 C   0  0  0  0  0  0  0  0  0  0  0  0
    2.1667   -1.9542    0.0000 O   0  0  0  0  0  0  0  0  0  0  0  0
   -0.3333    2.5708    0.0000 O   0  0  0  0  0  0  0  0  0  0  0  0
    8.0000   -4.7542    0.0000 S   0  0  0  0  0  0  0  0  0  0  0  0
   11.4042   -2.0167    0.0000 C   0  0  0  0  0  0  0  0  0  0  0  0
   11.2542   -6.3042    0.0000 C   0  0  0  0  0  0  0  0  0  0  0  0
    7.7250   -2.8667    0.0000 C   0  0  0  0  0  0  0  0  0  0  0  0
    8.4667    0.0750    0.0000 C   0  0  0  0  0  0  0  0  0  0  0  0
   11.6500   -7.0375    0.0000 O   0  0  0  0  0  0  0  0  0  0  0  0
   11.7917   -2.7417    0.0000 O   0  0  0  0  0  0  0  0  0  0  0  0
    7.1375   -3.4542    0.0000 C   0  0  0  0  0  0  0  0  0  0  0  0
   -1.4083   -1.4167    0.0000 C   0  0  0  0  0  0  0  0  0  0  0  0
    8.8292   -4.7875    0.0000 C   0  0  0  0  0  0  0  0  0  0  0  0
    7.5625   -5.4542    0.0000 C   0  0  0  0  0  0  0  0  0  0  0  0
    4.1375   -2.9042    0.0000 C   0  0  0  0  0  0  0  0  0  0  0  0
    5.5167   -3.2750    0.0000 C   0  0  0  0  0  0  0  0  0  0  0  0
    4.1917    0.0750    0.0000 C   0  0  0  0  0  0  0  0  0  0  0  0
    2.8042    0.4458    0.0000 C   0  0  0  0  0  0  0  0  0  0  0  0
    8.8417    0.8083    0.0000 C   0  0  0  0  0  0  0  0  0  0  0  0
    8.3917    1.3958    0.0000 C   0  0  0  0  0  0  0  0  0  0  0  0
  2  1  1  0
  9  3  1  1
  4 22  1  0
  5  6  1  0
  8  6  1  6
 19  7  1  1
  8  2  1  0
  9  1  1  0
 10  7  1  0
 11 17  1  0
 12  4  1  0
 13  3  1  0
 14 27  1  0
 15 18  1  0
 16 14  1  0
 17 12  1  1
 21 18  1  6
 19  5  1  0
 20 16  1  1
 21 10  1  0
 22 13  1  0
 23 11  1  0
 21 24  1  0
 25 20  1  0
 29 26  1  1
 27 23  1  6
 28 24  1  0
 29 15  1  0
 30 26  1  0
 31  2  2  0
 32  3  2  0
 33 49  1  0
 34  4  2  0
 35  5  2  0
 36 11  2  0
 37 10  2  0
 38 15  2  0
 39 14  2  0
 40 25  2  0
 41 28  2  0
 42 30  2  0
 43 33  2  0
 29 44  1  0
  8 45  1  0
 46 25  1  0
 47  1  1  0
 19 48  1  0
 49 44  1  0
 27 50  1  0
 51 28  1  0
 52 33  1  0
 53 62  1  0
 17 54  1  0
 20 55  1  0
  9 56  1  0
 57 22  1  0
 58 55  1  0
 59 54  1  0
 60 47  1  0
 61 30  1  0
 62 50  1  0
 63 53  1  0
 64 45  1  0
 65 45  1  0
 66 48  1  0
 67 48  1  0
 68 57  1  0
 69 68  1  0
 56 60  1  0
M  END

> <chembl_id>
CHEMBL441890

> <chembl_pref_name>
None

$$$$

     RDKit          2D

 18 19  0  0  0  0  0  0  0  0999 V2000
    5.4500   -3.5917    0.0000 C   0  0  0  0  0  0  0  0  0  0  0  0
    4.0292   -3.5917    0.0000 N   0  0  0  0  0  0  0  0  0  0  0  0
    4.0292   -4.4167    0.0000 N   0  0  0  0  0  0  0  0  0  0  0  0
    5.4500   -4.4167    0.0000 C   0  0  0  0  0  0  0  0  0  0  0  0
    4.7375   -3.1750    0.0000 C   0  0  0  0  0  0  0  0  0  0  0  0
    6.1667   -3.1792    0.0000 C   0  0  0  0  0  0  0  0  0  0  0  0
    4.7375   -4.8250    0.0000 C   0  0  0  0  0  0  0  0  0  0  0  0
    4.7375   -5.6500    0.0000 C   0  0  0  0  0  0  0  0  0  0  0  0
    6.1667   -2.3542    0.0000 O   0  0  0  0  0  0  0  0  0  0  0  0
    5.4500   -6.0542    0.0000 C   0  0  0  0  0  0  0  0  0  0  0  0
    4.0167   -6.0542    0.0000 C   0  0  0  0  0  0  0  0  0  0  0  0
    6.8792   -3.5917    0.0000 N   0  0  0  0  0  0  0  0  0  0  0  0
    4.7375   -2.3500    0.0000 Cl  0  0  0  0  0  0  0  0  0  0  0  0
    4.7375   -7.2917    0.0000 C   0  0  0  0  0  0  0  0  0  0  0  0
    5.4542   -6.8792    0.0000 C   0  0  0  0  0  0  0  0  0  0  0  0
    4.0167   -6.8792    0.0000 C   0  0  0  0  0  0  0  0  0  0  0  0
    4.7375   -8.1167    0.0000 O   0  0  0  0  0  0  0  0  0  0  0  0
    4.0250   -8.5292    0.0000 C   0  0  0  0  0  0  0  0  0  0  0  0
  2  5  2  0
  3  2  1  0
  4  1  2  0
  5  1  1  0
  6  1  1  0
  7  4  1  0
  8  7  1  0
  9  6  2  0
 10  8  1  0
 11  8  2  0
 12  6  1  0
 13  5  1  0
 14 16  2  0
 15 10  2  0
 16 11  1  0
 17 14  1  0
 18 17  1  0
  3  7  2  0
 15 14  1  0
M  END

> <chembl_id>
CHEMBL6538

> <chembl_pref_name>
None

$$$$

     RDKit          2D

 22 23  0  0  0  0  0  0  0  0999 V2000
    2.7917   -5.7917    0.0000 S   0  0  0  0  0  0  0  0  0  0  0  0
    2.7917   -4.9667    0.0000 C   0  0  0  0  0  0  0  0  0  0  0  0
    3.5042   -1.2417    0.0000 C   0  0  0  0  0  0  0  0  0  0  0  0
    3.5125   -4.5542    0.0000 C   0  0  0  0  0  0  0  0  0  0  0  0
    2.0792   -4.5542    0.0000 C   0  0  0  0  0  0  0  0  0  0  0  0
    2.0792   -1.2417    0.0000 N   0  0  0  0  0  0  0  0  0  0  0  0
    2.0792   -2.0750    0.0000 N   0  0  0  0  0  0  0  0  0  0  0  0
    3.5042   -2.0750    0.0000 C   0  0  0  0  0  0  0  0  0  0  0  0
    2.7917   -0.8292    0.0000 C   0  0  0  0  0  0  0  0  0  0  0  0
    4.2292   -0.8250    0.0000 C   0  0  0  0  0  0  0  0  0  0  0  0
    2.7917   -2.4875    0.0000 C   0  0  0  0  0  0  0  0  0  0  0  0
    2.7917   -3.3167    0.0000 C   0  0  0  0  0  0  0  0  0  0  0  0
    3.5125   -3.7292    0.0000 C   0  0  0  0  0  0  0  0  0  0  0  0
    2.0792   -3.7292    0.0000 C   0  0  0  0  0  0  0  0  0  0  0  0
    1.9667   -5.7917    0.0000 O   0  0  0  0  0  0  0  0  0  0  0  0
    3.6167   -5.7917    0.0000 O   0  0  0  0  0  0  0  0  0  0  0  0
    4.2250    0.0000    0.0000 O   0  0  0  0  0  0  0  0  0  0  0  0
    4.2292   -4.9792    0.0000 F   0  0  0  0  0  0  0  0  0  0  0  0
    1.3625   -4.9792    0.0000 F   0  0  0  0  0  0  0  0  0  0  0  0
    4.9500   -1.2375    0.0000 N   0  0  0  0  0  0  0  0  0  0  0  0
    2.7917   -0.0042    0.0000 Cl  0  0  0  0  0  0  0  0  0  0  0  0
    2.7917   -6.6167    0.0000 C   0  0  0  0  0  0  0  0  0  0  0  0
  2  1  1  0
  3  8  2  0
  4  2  1  0
  5  2  2  0
  6  7  1  0
  7 11  2  0
  8 11  1  0
  9  3  1  0
 10  3  1  0
 11 12  1  0
 12 14  2  0
 13  4  2  0
 14  5  1  0
 15  1  2  0
 16  1  2  0
 17 10  2  0
 18  4  1  0
 19  5  1  0
 20 10  1  0
 21  9  1  0
 22  1  1  0
 13 12  1  0
  6  9  2  0
M  END

> <chembl_id>
CHEMBL269599

> <chembl_pref_name>
None

$$$$

     RDKit          2D

 13 14  0  0  0  0  0  0  0  0999 V2000
    3.9792   -1.2125    0.0000 N   0  0  0  0  0  0  0  0  0  0  0  0
    3.5667   -0.5000    0.0000 N   0  0  0  0  0  0  0  0  0  0  0  0
    2.7375   -0.5000    0.0000 C   0  0  0  0  0  0  0  0  0  0  0  0
    2.3167   -1.2125    0.0000 N   0  0  0  0  0  0  0  0  0  0  0  0
    4.8042   -1.2125    0.0000 C   0  0  0  0  0  0  0  0  0  0  0  0
    2.3167    0.2208    0.0000 O   0  0  0  0  0  0  0  0  0  0  0  0
    6.0500   -1.9292    0.0000 N   0  0  0  0  0  0  0  0  0  0  0  0
    3.5667   -1.9292    0.0000 C   0  0  0  0  0  0  0  0  0  0  0  0
    2.7375   -1.9292    0.0000 C   0  0  0  0  0  0  0  0  0  0  0  0
    5.2167   -1.9292    0.0000 C   0  0  0  0  0  0  0  0  0  0  0  0
    5.2167   -0.5000    0.0000 C   0  0  0  0  0  0  0  0  0  0  0  0
    6.4625   -1.2125    0.0000 C   0  0  0  0  0  0  0  0  0  0  0  0
    6.0500   -0.5000    0.0000 C   0  0  0  0  0  0  0  0  0  0  0  0
  2  1  1  0
  3  2  1  0
  4  9  1  0
  5  1  1  0
  6  3  2  0
  7 10  2  0
  8  1  1  0
  9  8  1  0
 10  5  1  0
 11  5  2  0
 12 13  2  0
 13 11  1  0
  4  3  1  0
 12  7  1  0
M  END

> <chembl_id>
CHEMBL6415

> <chembl_pref_name>
None

$$$$

     RDKit          2D

 17 18  0  0  0  0  0  0  0  0999 V2000
    5.4500   -3.5917    0.0000 C   0  0  0  0  0  0  0  0  0  0  0  0
    4.0292   -3.5917    0.0000 N   0  0  0  0  0  0  0  0  0  0  0  0
    4.0292   -4.4167    0.0000 N   0  0  0  0  0  0  0  0  0  0  0  0
    5.4500   -4.4167    0.0000 C   0  0  0  0  0  0  0  0  0  0  0  0
    4.7375   -3.1750    0.0000 C   0  0  0  0  0  0  0  0  0  0  0  0
    6.1667   -3.1792    0.0000 C   0  0  0  0  0  0  0  0  0  0  0  0
    4.7375   -4.8250    0.0000 C   0  0  0  0  0  0  0  0  0  0  0  0
    6.1667   -2.3542    0.0000 O   0  0  0  0  0  0  0  0  0  0  0  0
    4.7375   -7.2917    0.0000 N   0  0  0  0  0  0  0  0  0  0  0  0
    4.7375   -5.6500    0.0000 C   0  0  0  0  0  0  0  0  0  0  0  0
    6.8792   -3.5917    0.0000 N   0  0  0  0  0  0  0  0  0  0  0  0
    4.7375   -2.3500    0.0000 Cl  0  0  0  0  0  0  0  0  0  0  0  0
    4.0167   -6.8792    0.0000 C   0  0  0  0  0  0  0  0  0  0  0  0
    5.4542   -6.8792    0.0000 C   0  0  0  0  0  0  0  0  0  0  0  0
    4.0167   -6.0542    0.0000 C   0  0  0  0  0  0  0  0  0  0  0  0
    5.4500   -6.0542    0.0000 C   0  0  0  0  0  0  0  0  0  0  0  0
    6.8792   -4.4167    0.0000 C   0  0  0  0  0  0  0  0  0  0  0  0
  2  5  2  0
  3  2  1  0
  4  1  2  0
  5  1  1  0
  6  1  1  0
  7  4  1  0
  8  6  2  0
  9 14  1  0
 10  7  1  0
 11  6  1  0
 12  5  1  0
 13 15  1  0
 14 16  2  0
 15 10  2  0
 16 10  1  0
 17 11  1  0
  3  7  2  0
 13  9  2  0
M  END

> <chembl_id>
CHEMBL6473

> <chembl_pref_name>
None

$$$$

     RDKit          2D

 18 19  0  0  0  0  0  0  0  0999 V2000
    5.4500   -3.5917    0.0000 C   0  0  0  0  0  0  0  0  0  0  0  0
    6.1667   -3.1792    0.0000 C   0  0  0  0  0  0  0  0  0  0  0  0
    4.0292   -3.5917    0.0000 N   0  0  0  0  0  0  0  0  0  0  0  0
    5.4500   -4.4167    0.0000 C   0  0  0  0  0  0  0  0  0  0  0  0
    4.7375   -3.1750    0.0000 C   0  0  0  0  0  0  0  0  0  0  0  0
    4.0292   -4.4167    0.0000 N   0  0  0  0  0  0  0  0  0  0  0  0
    4.7375   -4.8250    0.0000 C   0  0  0  0  0  0  0  0  0  0  0  0
    6.8792   -3.5917    0.0000 N   0  0  0  0  0  0  0  0  0  0  0  0
    6.1667   -2.3542    0.0000 O   0  0  0  0  0  0  0  0  0  0  0  0
    4.7375   -7.2917    0.0000 N   0  0  0  0  0  0  0  0  0  0  0  0
    4.7375   -5.6500    0.0000 C   0  0  0  0  0  0  0  0  0  0  0  0
    4.7375   -2.3500    0.0000 Cl  0  0  0  0  0  0  0  0  0  0  0  0
    4.0167   -6.8792    0.0000 C   0  0  0  0  0  0  0  0  0  0  0  0
    5.4542   -6.8792    0.0000 C   0  0  0  0  0  0  0  0  0  0  0  0
    6.8792   -4.4167    0.0000 C   0  0  0  0  0  0  0  0  0  0  0  0
    7.5917   -3.1792    0.0000 C   0  0  0  0  0  0  0  0  0  0  0  0
    4.0167   -6.0542    0.0000 C   0  0  0  0  0  0  0  0  0  0  0  0
    5.4500   -6.0542    0.0000 C   0  0  0  0  0  0  0  0  0  0  0  0
  2  1  1  0
  3  5  2  0
  4  1  2  0
  5  1  1  0
  6  3  1  0
  7  4  1  0
  8  2  1  0
  9  2  2  0
 10 14  1  0
 11  7  1  0
 12  5  1  0
 13 17  1  0
 14 18  2  0
 15  8  1  0
 16  8  1  0
 17 11  2  0
 18 11  1  0
  6  7  2  0
 13 10  2  0
M  END

> <chembl_id>
CHEMBL268455

> <chembl_pref_name>
None

$$$$

     RDKit          2D

 15 16  0  0  0  0  0  0  0  0999 V2000
    5.4500   -3.5917    0.0000 C   0  0  0  0  0  0  0  0  0  0  0  0
    4.0292   -3.5917    0.0000 N   0  0  0  0  0  0  0  0  0  0  0  0
    4.0292   -4.4167    0.0000 N   0  0  0  0  0  0  0  0  0  0  0  0
    4.7375   -3.1750    0.0000 C   0  0  0  0  0  0  0  0  0  0  0  0
    4.7375   -4.8250    0.0000 C   0  0  0  0  0  0  0  0  0  0  0  0
    6.1667   -3.1792    0.0000 C   0  0  0  0  0  0  0  0  0  0  0  0
    6.8792   -2.7667    0.0000 N   0  0  0  0  0  0  0  0  0  0  0  0
    5.4500   -4.4167    0.0000 C   0  0  0  0  0  0  0  0  0  0  0  0
    4.7375   -7.2917    0.0000 N   0  0  0  0  0  0  0  0  0  0  0  0
    4.7375   -5.6500    0.0000 C   0  0  0  0  0  0  0  0  0  0  0  0
    4.7375   -2.3500    0.0000 Cl  0  0  0  0  0  0  0  0  0  0  0  0
    5.4542   -6.8792    0.0000 C   0  0  0  0  0  0  0  0  0  0  0  0
    4.0167   -6.8792    0.0000 C   0  0  0  0  0  0  0  0  0  0  0  0
    5.4500   -6.0542    0.0000 C   0  0  0  0  0  0  0  0  0  0  0  0
    4.0167   -6.0542    0.0000 C   0  0  0  0  0  0  0  0  0  0  0  0
  2  4  2  0
  3  5  2  0
  4  1  1  0
  5  8  1  0
  6  1  1  0
  7  6  3  0
  8  1  2  0
  9 13  2  0
 10  5  1  0
 11  4  1  0
 12 14  2  0
 13 15  1  0
 14 10  1  0
 15 10  2  0
  2  3  1  0
 12  9  1  0
M  END

> <chembl_id>
CHEMBL6475

> <chembl_pref_name>
None

$$$$

     RDKit          2D

 24 26  0  0  0  0  0  0  0  0999 V2000
    4.4042   -4.0917    0.0000 S   0  0  0  0  0  0  0  0  0  0  0  0
    5.1250   -4.5042    0.0000 N   0  0  0  0  0  0  0  0  0  0  0  0
    4.4042   -3.2667    0.0000 C   0  0  0  0  0  0  0  0  0  0  0  0
    3.6875   -2.8542    0.0000 C   0  0  0  0  0  0  0  0  0  0  0  0
    3.6875   -2.0250    0.0000 C   0  0  0  0  0  0  0  0  0  0  0  0
    5.8375   -4.0792    0.0000 C   0  0  0  0  0  0  0  0  0  0  0  0
    2.9667   -1.6042    0.0000 C   0  0  0  0  0  0  0  0  0  0  0  0
    5.8167   -3.2542    0.0000 N   0  0  0  0  0  0  0  0  0  0  0  0
    3.5667   -4.0792    0.0000 O   0  0  0  0  0  0  0  0  0  0  0  0
    4.4042   -4.9250    0.0000 O   0  0  0  0  0  0  0  0  0  0  0  0
    7.2667   -4.0792    0.0000 N   0  0  0  0  0  0  0  0  0  0  0  0
    2.9667   -0.7792    0.0000 N   0  0  0  0  0  0  0  0  0  0  0  0
    6.5625   -4.5000    0.0000 C   0  0  0  0  0  0  0  0  0  0  0  0
    7.2667   -3.2417    0.0000 C   0  0  0  0  0  0  0  0  0  0  0  0
    6.5500   -2.8375    0.0000 C   0  0  0  0  0  0  0  0  0  0  0  0
    5.1250   -2.8500    0.0000 C   0  0  0  0  0  0  0  0  0  0  0  0
    4.4042   -1.6042    0.0000 C   0  0  0  0  0  0  0  0  0  0  0  0
    2.9667   -3.2667    0.0000 C   0  0  0  0  0  0  0  0  0  0  0  0
    2.2542   -2.0250    0.0000 C   0  0  0  0  0  0  0  0  0  0  0  0
    2.2542   -2.8542    0.0000 C   0  0  0  0  0  0  0  0  0  0  0  0
    5.1250   -2.0167    0.0000 C   0  0  0  0  0  0  0  0  0  0  0  0
    3.6875   -0.3542    0.0000 C   0  0  0  0  0  0  0  0  0  0  0  0
    2.2375   -0.3625    0.0000 C   0  0  0  0  0  0  0  0  0  0  0  0
    7.9875   -2.8292    0.0000 C   0  0  0  0  0  0  0  0  0  0  0  0
  2  1  1  0
  3  1  1  0
  4  3  1  0
  5  4  2  0
  6  2  1  0
  7  5  1  0
  8  6  2  0
  9  1  2  0
 10  1  2  0
 11 13  2  0
 12  7  1  0
 13  6  1  0
 14 11  1  0
 15  8  1  0
 16  3  2  0
 17 21  2  0
 18  4  1  0
 19 20  1  0
 20 18  2  0
 21 16  1  0
 22 12  1  0
 23 12  1  0
 24 14  1  0
 17  5  1  0
 14 15  2  0
 19  7  2  0
M  END

> <chembl_id>
CHEMBL6583

> <chembl_pref_name>
None

$$$$

     RDKit          2D

 29 31  0  0  0  0  0  0  0  0999 V2000
    0.8667   -0.6917    0.0000 N   0  0  0  0  0  0  0  0  0  0  0  0
    1.5792    0.5500    0.0000 N   0  0  0  0  0  0  0  0  0  0  0  0
    2.2917   -0.6875    0.0000 C   0  0  0  0  0  0  0  0  0  0  0  0
    1.5792   -1.1042    0.0000 C   0  0  0  0  0  0  0  0  0  0  0  0
    0.8667    0.1375    0.0000 C   0  0  0  0  0  0  0  0  0  0  0  0
    2.2917    0.1375    0.0000 C   0  0  0  0  0  0  0  0  0  0  0  0
    0.1542    0.5458    0.0000 N   0  0  0  0  0  0  0  0  0  0  0  0
    1.5792   -1.9292    0.0000 N   0  0  0  0  0  0  0  0  0  0  0  0
    3.0125   -1.1000    0.0000 N   0  0  0  0  0  0  0  0  0  0  0  0
    3.0042    0.5583    0.0000 N   0  0  0  0  0  0  0  0  0  0  0  0
    3.7250   -0.6792    0.0000 C   0  0  0  0  0  0  0  0  0  0  0  0
   -0.5625    0.1333    0.0000 C   0  0  0  0  0  0  0  0  0  0  0  0
    0.8667   -2.3417    0.0000 C   0  0  0  0  0  0  0  0  0  0  0  0
    5.8542    0.5583    0.0000 C   0  0  0  0  0  0  0  0  0  0  0  0
    5.1417    0.1458    0.0000 C   0  0  0  0  0  0  0  0  0  0  0  0
    4.4417   -1.0917    0.0000 S   0  0  0  0  0  0  0  0  0  0  0  0
    5.1542   -0.6792    0.0000 C   0  0  0  0  0  0  0  0  0  0  0  0
    6.5792    0.1458    0.0000 C   0  0  0  0  0  0  0  0  0  0  0  0
    3.7167    0.1458    0.0000 C   0  0  0  0  0  0  0  0  0  0  0  0
   -1.2750    0.5458    0.0000 N   0  0  0  0  0  0  0  0  0  0  0  0
    0.1542   -1.9292    0.0000 N   0  0  0  0  0  0  0  0  0  0  0  0
    6.5792   -0.6792    0.0000 C   0  0  0  0  0  0  0  0  0  0  0  0
    5.8500    1.3833    0.0000 Cl  0  0  0  0  0  0  0  0  0  0  0  0
    5.8667   -1.0917    0.0000 C   0  0  0  0  0  0  0  0  0  0  0  0
    7.2917    0.5625    0.0000 Cl  0  0  0  0  0  0  0  0  0  0  0  0
   -0.5583   -2.3417    0.0000 C   0  0  0  0  0  0  0  0  0  0  0  0
    0.1500   -1.1042    0.0000 C   0  0  0  0  0  0  0  0  0  0  0  0
   -1.9958    0.1333    0.0000 C   0  0  0  0  0  0  0  0  0  0  0  0
   -1.2750    1.3708    0.0000 C   0  0  0  0  0  0  0  0  0  0  0  0
  2  5  1  0
  3  4  2  0
  4  1  1  0
  5  1  2  0
  6  2  2  0
  7  5  1  0
  8  4  1  0
  9  3  1  0
 10  6  1  0
 11  9  2  0
 12  7  2  0
 13  8  2  0
 14 15  2  0
 15 17  1  0
 16 11  1  0
 17 16  1  0
 18 22  2  0
 19 10  2  0
 20 12  1  0
 21 13  1  0
 22 24  1  0
 23 14  1  0
 24 17  2  0
 25 18  1  0
 26 21  1  0
 27 21  1  0
 28 20  1  0
 29 20  1  0
  3  6  1  0
 11 19  1  0
 18 14  1  0
M  END

> <chembl_id>
CHEMBL6584

> <chembl_pref_name>
None

$$$$

     RDKit          2D

 30 31  0  0  1  0  0  0  0  0999 V2000
   -2.3708   -0.2667    0.0000 C   0  0  0  0  0  0  0  0  0  0  0  0
   -1.7458   -1.0125    0.0000 C   0  0  0  0  0  0  0  0  0  0  0  0
   -2.6875   -0.7750    0.0000 C   0  0  0  0  0  0  0  0  0  0  0  0
   -1.7833   -0.4042    0.0000 C   0  0  0  0  0  0  0  0  0  0  0  0
   -2.3000   -1.2375    0.0000 C   0  0  0  0  0  0  0  0  0  0  0  0
   -1.2375   -1.3292    0.0000 C   0  0  0  0  0  0  0  0  0  0  0  0
    1.8792   -0.2417    0.0000 C   0  0  0  0  0  0  0  0  0  0  0  0
   -2.6000    0.3000    0.0000 O   0  0  0  0  0  0  0  0  0  0  0  0
   -0.7083   -1.0417    0.0000 C   0  0  0  0  0  0  0  0  0  0  0  0
    1.8875   -0.8417    0.0000 O   0  0  0  0  0  0  0  0  0  0  0  0
    0.3292   -1.0750    0.0000 C   0  0  0  0  0  0  0  0  0  0  0  0
    0.3000    0.1458    0.0000 C   0  0  0  0  0  0  0  0  0  0  0  0
   -0.2958    0.1500    0.0000 C   0  0  0  0  0  0  0  0  0  0  0  0
   -2.4458   -1.8167    0.0000 O   0  0  0  0  0  0  0  0  0  0  0  0
    0.8417   -1.3917    0.0000 C   0  0  0  0  0  0  0  0  0  0  0  0
    2.3917    0.0583    0.0000 O   0  0  0  0  0  0  0  0  0  0  0  0
    0.4000   -1.6750    0.0000 O   0  0  0  0  0  0  0  0  0  0  0  0
    1.3750   -1.1042    0.0000 C   0  0  0  0  0  0  0  0  0  0  0  0
   -0.1958   -1.3625    0.0000 C   0  0  0  0  0  0  0  0  0  0  0  0
   -1.3208   -0.0125    0.0000 C   0  0  0  0  0  0  0  0  0  0  0  0
    1.8792   -1.4292    0.0000 C   0  0  0  0  0  0  0  0  0  0  0  0
    1.3625    0.0583    0.0000 C   0  0  0  0  0  0  0  0  0  0  0  0
   -0.7625   -0.2167    0.0000 C   0  0  0  0  0  0  0  0  0  0  0  0
    0.8375   -0.2417    0.0000 C   0  0  0  0  0  0  0  0  0  0  0  0
    0.4125   -0.4792    0.0000 C   0  0  0  0  0  0  0  0  0  0  0  0
    2.9792   -0.0625    0.0000 C   0  0  0  0  0  0  0  0  0  0  0  0
    1.9167   -2.0292    0.0000 C   0  0  0  0  0  0  0  0  0  0  0  0
    2.4292   -1.2000    0.0000 C   0  0  0  0  0  0  0  0  0  0  0  0
    2.8167   -1.6542    0.0000 C   0  0  0  0  0  0  0  0  0  0  0  0
    2.5042   -2.1542    0.0000 C   0  0  0  0  0  0  0  0  0  0  0  0
  2  4  1  0
  3  1  1  0
  4  1  1  0
  5  3  1  0
  2  6  1  1
  7 22  1  0
  8  1  2  0
  9  6  2  0
 10  7  2  0
 11 19  1  0
 12 13  2  0
 13 23  1  0
  5 14  1  6
 15 11  1  0
 16  7  1  0
 11 17  1  0
 18 15  1  0
 19  9  1  0
  4 20  1  6
 21 18  1  0
 22 24  1  0
 23 20  1  0
 24 12  1  0
 25 11  1  0
 26 16  1  0
 27 21  1  0
 28 21  1  0
 29 28  1  0
 30 27  1  0
  5  2  1  0
 29 30  1  0
M  END

> <chembl_id>
CHEMBL6422

> <chembl_pref_name>
None

$$$$

     RDKit          2D

 27 29  0  0  0  0  0  0  0  0999 V2000
    7.3792   -6.6417    0.0000 C   0  0  0  0  0  0  0  0  0  0  0  0
    6.8917   -6.9917    0.0000 N   0  0  0  0  0  0  0  0  0  0  0  0
    7.8667   -6.9917    0.0000 O   0  0  0  0  0  0  0  0  0  0  0  0
    4.4667   -5.7167    0.0000 C   0  0  0  0  0  0  0  0  0  0  0  0
    4.6000   -6.3000    0.0000 C   0  0  0  0  0  0  0  0  0  0  0  0
    3.9292   -5.4542    0.0000 C   0  0  0  0  0  0  0  0  0  0  0  0
    3.3917   -5.7167    0.0000 C   0  0  0  0  0  0  0  0  0  0  0  0
    6.3292   -6.8042    0.0000 C   0  0  0  0  0  0  0  0  0  0  0  0
    7.6792   -7.5667    0.0000 C   0  0  0  0  0  0  0  0  0  0  0  0
    7.0792   -7.5667    0.0000 C   0  0  0  0  0  0  0  0  0  0  0  0
    7.3792   -6.0417    0.0000 O   0  0  0  0  0  0  0  0  0  0  0  0
    5.1875   -6.4375    0.0000 C   0  0  0  0  0  0  0  0  0  0  0  0
    8.1417   -9.0792    0.0000 C   0  0  0  0  0  0  0  0  0  0  0  0
    4.2292   -6.7625    0.0000 C   0  0  0  0  0  0  0  0  0  0  0  0
    3.6292   -6.7667    0.0000 C   0  0  0  0  0  0  0  0  0  0  0  0
    7.7917   -8.6000    0.0000 N   0  0  0  0  0  0  0  0  0  0  0  0
    3.2542   -6.3000    0.0000 C   0  0  0  0  0  0  0  0  0  0  0  0
    2.9125   -5.3500    0.0000 O   0  0  0  0  0  0  0  0  0  0  0  0
    7.9000   -9.6292    0.0000 O   0  0  0  0  0  0  0  0  0  0  0  0
    5.8792   -7.2042    0.0000 C   0  0  0  0  0  0  0  0  0  0  0  0
    6.2042   -6.2167    0.0000 C   0  0  0  0  0  0  0  0  0  0  0  0
    5.6292   -6.0292    0.0000 C   0  0  0  0  0  0  0  0  0  0  0  0
    5.3125   -7.0250    0.0000 C   0  0  0  0  0  0  0  0  0  0  0  0
    8.0292   -8.0500    0.0000 C   0  0  0  0  0  0  0  0  0  0  0  0
    3.9417   -4.8542    0.0000 O   0  0  0  0  0  0  0  0  0  0  0  0
    8.7375   -9.0167    0.0000 C   0  0  0  0  0  0  0  0  0  0  0  0
    3.4292   -4.5542    0.0000 C   0  0  0  0  0  0  0  0  0  0  0  0
  2  1  1  0
  3  1  1  0
  4  5  1  0
  5 12  1  0
  6  4  2  0
  7  6  1  0
  8  2  1  0
  9  3  1  0
 10  2  1  0
 11  1  2  0
 12 22  2  0
 13 16  1  0
 14  5  2  0
 15 14  1  0
 16 24  1  0
 17 15  2  0
 18  7  2  0
 19 13  2  0
 20  8  1  0
 21  8  2  0
 22 21  1  0
 23 20  2  0
 24  9  1  0
 25  6  1  0
 26 13  1  0
 27 25  1  0
 10  9  1  0
 23 12  1  0
  7 17  1  0
M  END

> <chembl_id>
CHEMBL428159

> <chembl_pref_name>
None

$$$$

     RDKit          2D

122125  0  0  1  0  0  0  0  0999 V2000
    6.2375   -1.6250    0.0000 N   0  0  0  0  0  0  0  0  0  0  0  0
    5.6500   -1.0417    0.0000 C   0  0  0  0  0  0  0  0  0  0  0  0
    7.4292   -0.7542    0.0000 C   0  0  0  0  0  0  0  0  0  0  0  0
    9.9917   -9.9375    0.0000 C   0  0  0  0  0  0  0  0  0  0  0  0
    9.4500    0.0625    0.0000 C   0  0  0  0  0  0  0  0  0  0  0  0
    9.5500  -10.6417    0.0000 C   0  0  0  0  0  0  0  0  0  0  0  0
    3.4667   -0.8875    0.0000 C   0  0  0  0  0  0  0  0  0  0  0  0
    9.6042   -9.2042    0.0000 N   0  0  0  0  0  0  0  0  0  0  0  0
    9.4542  -13.5000    0.0000 N   0  0  0  0  0  0  0  0  0  0  0  0
    9.8417  -14.2292    0.0000 C   0  0  0  0  0  0  0  0  0  0  0  0
    4.2667   -0.6667    0.0000 N   0  0  0  0  0  0  0  0  0  0  0  0
    8.2417  -12.7417    0.0000 C   0  0  0  0  0  0  0  0  0  0  0  0
    2.0875   -0.5125    0.0000 N   0  0  0  0  0  0  0  0  0  0  0  0
    4.8500   -1.2542    0.0000 C   0  0  0  0  0  0  0  0  0  0  0  0
    7.0542   -1.4917    0.0000 C   0  0  0  0  0  0  0  0  0  0  0  0
    9.8917  -12.8000    0.0000 C   0  0  0  0  0  0  0  0  0  0  0  0
    1.5000    0.0708    0.0000 C   0  0  0  0  0  0  0  0  0  0  0  0
   10.0417   -8.5042    0.0000 C   0  0  0  0  0  0  0  0  0  0  0  0
    9.7042   -6.3417    0.0000 C   0  0  0  0  0  0  0  0  0  0  0  0
    9.8500   -2.0500    0.0000 C   0  0  0  0  0  0  0  0  0  0  0  0
    9.9000   -0.6292    0.0000 N   0  0  0  0  0  0  0  0  0  0  0  0
    8.2500   -0.7167    0.0000 N   0  0  0  0  0  0  0  0  0  0  0  0
   10.1875   -4.2125    0.0000 C   0  0  0  0  0  0  0  0  0  0  0  0
   -0.6833    0.2250    0.0000 C   0  0  0  0  0  0  0  0  0  0  0  0
    9.7500   -4.9125    0.0000 N   0  0  0  0  0  0  0  0  0  0  0  0
   10.2875   -1.3542    0.0000 C   0  0  0  0  0  0  0  0  0  0  0  0
    9.9417  -11.3667    0.0000 N   0  0  0  0  0  0  0  0  0  0  0  0
   10.1417   -5.6417    0.0000 C   0  0  0  0  0  0  0  0  0  0  0  0
    7.9167  -14.0417    0.0000 N   0  0  0  0  0  0  0  0  0  0  0  0
    9.4042  -14.9292    0.0000 C   0  0  0  0  0  0  0  0  0  0  0  0
    0.1167    0.4375    0.0000 N   0  0  0  0  0  0  0  0  0  0  0  0
   10.0917   -7.0750    0.0000 N   0  0  0  0  0  0  0  0  0  0  0  0
    2.8792   -0.3000    0.0000 C   0  0  0  0  0  0  0  0  0  0  0  0
    0.7000   -0.1417    0.0000 C   0  0  0  0  0  0  0  0  0  0  0  0
    8.6250    0.0208    0.0000 N   0  0  0  0  0  0  0  0  0  0  0  0
    8.5500  -13.5042    0.0000 C   0  0  0  0  0  0  0  0  0  0  0  0
   10.2417   -2.7792    0.0000 N   0  0  0  0  0  0  0  0  0  0  0  0
    9.5042  -12.0667    0.0000 C   0  0  0  0  0  0  0  0  0  0  0  0
    0.4875   -0.9417    0.0000 C   0  0  0  0  0  0  0  0  0  0  0  0
    9.6500   -7.7750    0.0000 C   0  0  0  0  0  0  0  0  0  0  0  0
    7.4167  -12.8000    0.0000 C   0  0  0  0  0  0  0  0  0  0  0  0
    8.6792  -12.0417    0.0000 C   0  0  0  0  0  0  0  0  0  0  0  0
    9.2542  -19.2292    0.0000 C   0  0  0  0  0  0  0  0  0  0  0  0
   -2.0708    0.5958    0.0000 N   0  0  0  0  0  0  0  0  0  0  0  0
    9.3042  -17.8000    0.0000 N   0  0  0  0  0  0  0  0  0  0  0  0
    9.8042   -3.4792    0.0000 C   0  0  0  0  0  0  0  0  0  0  0  0
    1.0750   -1.5292    0.0000 C   0  0  0  0  0  0  0  0  0  0  0  0
   -1.2708    0.8083    0.0000 C   0  0  0  0  0  0  0  0  0  0  0  0
    9.7917  -15.6625    0.0000 N   0  0  0  0  0  0  0  0  0  0  0  0
    9.7417  -17.0917    0.0000 C   0  0  0  0  0  0  0  0  0  0  0  0
    7.2167  -13.6042    0.0000 C   0  0  0  0  0  0  0  0  0  0  0  0
   -2.2833   -0.2000    0.0000 C   0  0  0  0  0  0  0  0  0  0  0  0
    5.8625   -0.2417    0.0000 O   0  0  0  0  0  0  0  0  0  0  0  0
    9.6917  -18.5292    0.0000 C   0  0  0  0  0  0  0  0  0  0  0  0
    6.9750   -0.0625    0.0000 O   0  0  0  0  0  0  0  0  0  0  0  0
   -0.0458    2.6208    0.0000 C   0  0  0  0  0  0  0  0  0  0  0  0
    9.8167    0.8000    0.0000 O   0  0  0  0  0  0  0  0  0  0  0  0
    8.7292  -10.6125    0.0000 O   0  0  0  0  0  0  0  0  0  0  0  0
    3.2542   -1.6792    0.0000 O   0  0  0  0  0  0  0  0  0  0  0  0
    9.0250   -2.0167    0.0000 O   0  0  0  0  0  0  0  0  0  0  0  0
    8.8792   -6.3167    0.0000 O   0  0  0  0  0  0  0  0  0  0  0  0
    1.7125    0.8708    0.0000 O   0  0  0  0  0  0  0  0  0  0  0  0
   10.7167  -12.8292    0.0000 O   0  0  0  0  0  0  0  0  0  0  0  0
   10.8667   -8.5375    0.0000 O   0  0  0  0  0  0  0  0  0  0  0  0
   -0.8958   -0.5667    0.0000 O   0  0  0  0  0  0  0  0  0  0  0  0
   11.0167   -4.2375    0.0000 O   0  0  0  0  0  0  0  0  0  0  0  0
    8.8250   -7.7417    0.0000 C   0  0  0  0  0  0  0  0  0  0  0  0
    8.5792  -14.9042    0.0000 O   0  0  0  0  0  0  0  0  0  0  0  0
    8.4292  -19.2000    0.0000 O   0  0  0  0  0  0  0  0  0  0  0  0
   10.8167   -9.9667    0.0000 C   0  0  0  0  0  0  0  0  0  0  0  0
   10.6667  -14.2542    0.0000 C   0  0  0  0  0  0  0  0  0  0  0  0
    0.8542   -2.3292    0.0000 O   0  0  0  0  0  0  0  0  0  0  0  0
   10.5667  -17.1250    0.0000 O   0  0  0  0  0  0  0  0  0  0  0  0
   -3.0833   -0.4125    0.0000 O   0  0  0  0  0  0  0  0  0  0  0  0
    0.7542    2.8333    0.0000 O   0  0  0  0  0  0  0  0  0  0  0  0
   -1.0500    1.6083    0.0000 C   0  0  0  0  0  0  0  0  0  0  0  0
    9.3542  -16.3625    0.0000 C   0  0  0  0  0  0  0  0  0  0  0  0
    4.6375   -2.0542    0.0000 C   0  0  0  0  0  0  0  0  0  0  0  0
    6.1042   -2.4417    0.0000 C   0  0  0  0  0  0  0  0  0  0  0  0
    3.1000    0.4958    0.0000 C   0  0  0  0  0  0  0  0  0  0  0  0
   -0.2583    1.8250    0.0000 C   0  0  0  0  0  0  0  0  0  0  0  0
    8.3875   -8.4500    0.0000 C   0  0  0  0  0  0  0  0  0  0  0  0
    9.6417  -19.9542    0.0000 O   0  0  0  0  0  0  0  0  0  0  0  0
    8.9750   -3.4542    0.0000 C   0  0  0  0  0  0  0  0  0  0  0  0
    7.5125   -9.8500    0.0000 C   0  0  0  0  0  0  0  0  0  0  0  0
    1.8750   -1.3167    0.0000 O   0  0  0  0  0  0  0  0  0  0  0  0
   -0.6250    3.2083    0.0000 O   0  0  0  0  0  0  0  0  0  0  0  0
    7.7042   -4.1250    0.0000 S   0  0  0  0  0  0  0  0  0  0  0  0
   10.9667   -5.6667    0.0000 C   0  0  0  0  0  0  0  0  0  0  0  0
   11.1125   -1.3792    0.0000 C   0  0  0  0  0  0  0  0  0  0  0  0
    7.5625   -8.4167    0.0000 C   0  0  0  0  0  0  0  0  0  0  0  0
    8.7792   -9.1792    0.0000 C   0  0  0  0  0  0  0  0  0  0  0  0
   12.9500  -20.0750    0.0000 N   0  0  0  0  0  0  0  0  0  0  0  0
    7.1250   -9.1167    0.0000 C   0  0  0  0  0  0  0  0  0  0  0  0
    8.3417   -9.8792    0.0000 C   0  0  0  0  0  0  0  0  0  0  0  0
    7.4292   -2.2292    0.0000 C   0  0  0  0  0  0  0  0  0  0  0  0
   11.0542  -14.9917    0.0000 O   0  0  0  0  0  0  0  0  0  0  0  0
   11.2042  -10.6917    0.0000 O   0  0  0  0  0  0  0  0  0  0  0  0
    7.0750  -10.5542    0.0000 O   0  0  0  0  0  0  0  0  0  0  0  0
    8.1750    0.7125    0.0000 C   0  0  0  0  0  0  0  0  0  0  0  0
   11.5042   -2.1042    0.0000 O   0  0  0  0  0  0  0  0  0  0  0  0
   11.3542   -6.4042    0.0000 O   0  0  0  0  0  0  0  0  0  0  0  0
    6.8417   -2.8167    0.0000 C   0  0  0  0  0  0  0  0  0  0  0  0
    6.8167  -12.2250    0.0000 C   0  0  0  0  0  0  0  0  0  0  0  0
   -1.7000   -0.7792    0.0000 C   0  0  0  0  0  0  0  0  0  0  0  0
    8.5375   -4.1542    0.0000 C   0  0  0  0  0  0  0  0  0  0  0  0
   10.5167  -18.5542    0.0000 C   0  0  0  0  0  0  0  0  0  0  0  0
    6.4167  -13.8292    0.0000 C   0  0  0  0  0  0  0  0  0  0  0  0
   12.1250  -20.0417    0.0000 C   0  0  0  0  0  0  0  0  0  0  0  0
   11.2542   -9.2667    0.0000 C   0  0  0  0  0  0  0  0  0  0  0  0
   11.1042  -13.5625    0.0000 C   0  0  0  0  0  0  0  0  0  0  0  0
    7.2667   -4.8250    0.0000 C   0  0  0  0  0  0  0  0  0  0  0  0
    3.8417   -2.2667    0.0000 C   0  0  0  0  0  0  0  0  0  0  0  0
    5.2250   -2.6375    0.0000 C   0  0  0  0  0  0  0  0  0  0  0  0
    3.8917    0.7125    0.0000 C   0  0  0  0  0  0  0  0  0  0  0  0
    2.5042    1.0833    0.0000 C   0  0  0  0  0  0  0  0  0  0  0  0
    8.5500    1.4458    0.0000 C   0  0  0  0  0  0  0  0  0  0  0  0
   10.9042  -19.2792    0.0000 C   0  0  0  0  0  0  0  0  0  0  0  0
   11.7375  -19.3125    0.0000 C   0  0  0  0  0  0  0  0  0  0  0  0
    6.0250  -12.4542    0.0000 C   0  0  0  0  0  0  0  0  0  0  0  0
    8.1000    2.0333    0.0000 C   0  0  0  0  0  0  0  0  0  0  0  0
    5.8250  -13.2542    0.0000 C   0  0  0  0  0  0  0  0  0  0  0  0
  2  1  1  0
 15  3  1  1
  4  8  1  1
  5 35  1  0
  6  4  1  0
  7 11  1  0
  8 18  1  0
  9 16  1  0
 10  9  1  1
 14 11  1  6
 12 42  1  0
 33 13  1  1
 14  2  1  0
 15  1  1  0
 16 38  1  0
 17 13  1  0
 18 40  1  0
 19 28  1  0
 20 26  1  0
 21  5  1  0
 22  3  1  0
 23 46  1  0
 24 31  1  0
 25 23  1  0
 26 21  1  1
 27  6  1  0
 28 25  1  1
 29 36  1  0
 30 10  1  0
 34 31  1  6
 32 19  1  0
 33  7  1  0
 34 17  1  0
 35 22  1  0
 36 12  2  0
 37 20  1  0
 38 27  1  6
 34 39  1  0
 40 32  1  6
 41 12  1  0
 38 42  1  0
 43 54  1  0
 48 44  1  1
 45 50  1  0
 46 37  1  6
 47 39  1  0
 48 24  1  0
 49 30  1  0
 50 77  1  0
 51 41  2  0
 52 44  1  0
 53  2  2  0
 54 45  1  1
 55  3  2  0
 56 81  1  0
 57  5  2  0
 58  6  2  0
 59  7  2  0
 60 20  2  0
 61 19  2  0
 62 17  2  0
 63 16  2  0
 64 18  2  0
 65 24  2  0
 66 23  2  0
 40 67  1  0
 68 30  2  0
 69 43  2  0
  4 70  1  0
 10 71  1  0
 72 47  2  0
 73 50  2  0
 74 52  2  0
 75 56  2  0
 48 76  1  0
 77 49  1  0
 14 78  1  0
 79  1  1  0
 33 80  1  0
 81 76  1  0
 82 67  1  0
 83 43  1  0
 46 84  1  0
 85 95  1  0
 86 47  1  0
 87 56  1  0
 88106  1  0
 28 89  1  0
 26 90  1  0
 91 82  2  0
 92 82  1  0
 93109  1  0
 94 91  1  0
 95 92  2  0
 15 96  1  0
 71 97  1  1
 70 98  1  1
 99 85  1  0
100 35  1  0
101 90  1  0
102 89  1  0
103 79  1  0
104 41  1  0
105 52  1  0
106 84  1  0
 54107  1  0
108 51  1  0
109119  1  0
110 70  1  0
111 71  1  0
112 88  1  0
113 78  1  0
114 78  1  0
115 80  1  0
116 80  1  0
117100  1  0
118107  1  0
119118  1  0
120104  2  0
121117  1  0
122120  1  0
 96103  1  0
 94 85  2  0
 29 51  1  0
122108  2  0
M  END

> <chembl_id>
CHEMBL406172

> <chembl_pref_name>
None

$$$$

     RDKit          2D

 67 67  0  0  1  0  0  0  0  0999 V2000
    9.5042   -4.5625    0.0000 N   0  0  0  0  0  0  0  0  0  0  0  0
    8.7917   -4.1417    0.0000 C   0  0  0  0  0  0  0  0  0  0  0  0
   10.4500   -3.4250    0.0000 C   0  0  0  0  0  0  0  0  0  0  0  0
   -0.5208   -4.4750    0.0000 C   0  0  0  0  0  0  0  0  0  0  0  0
    0.2042   -4.0667    0.0000 C   0  0  0  0  0  0  0  0  0  0  0  0
    6.6417   -4.5375    0.0000 C   0  0  0  0  0  0  0  0  0  0  0  0
   -1.2250   -4.0542    0.0000 N   0  0  0  0  0  0  0  0  0  0  0  0
    7.3625   -4.1292    0.0000 N   0  0  0  0  0  0  0  0  0  0  0  0
    5.2125   -4.5250    0.0000 N   0  0  0  0  0  0  0  0  0  0  0  0
    8.0792   -4.5542    0.0000 C   0  0  0  0  0  0  0  0  0  0  0  0
   10.2667   -4.2292    0.0000 C   0  0  0  0  0  0  0  0  0  0  0  0
   -1.9458   -4.4542    0.0000 C   0  0  0  0  0  0  0  0  0  0  0  0
    4.5000   -4.1042    0.0000 C   0  0  0  0  0  0  0  0  0  0  0  0
   11.2292   -3.1792    0.0000 N   0  0  0  0  0  0  0  0  0  0  0  0
    2.3500   -4.5000    0.0000 C   0  0  0  0  0  0  0  0  0  0  0  0
    0.9167   -4.4792    0.0000 N   0  0  0  0  0  0  0  0  0  0  0  0
    3.0667   -4.0917    0.0000 N   0  0  0  0  0  0  0  0  0  0  0  0
    5.9292   -4.1167    0.0000 C   0  0  0  0  0  0  0  0  0  0  0  0
    3.7792   -4.5042    0.0000 C   0  0  0  0  0  0  0  0  0  0  0  0
   -2.6625   -4.0417    0.0000 C   0  0  0  0  0  0  0  0  0  0  0  0
    3.7750   -5.3375    0.0000 C   0  0  0  0  0  0  0  0  0  0  0  0
   -2.6583   -3.2167    0.0000 C   0  0  0  0  0  0  0  0  0  0  0  0
   11.4125   -2.3750    0.0000 N   0  0  0  0  0  0  0  0  0  0  0  0
   12.1917   -2.1167    0.0000 C   0  0  0  0  0  0  0  0  0  0  0  0
   -3.3833   -4.4417    0.0000 N   0  0  0  0  0  0  0  0  0  0  0  0
    1.6292   -4.0792    0.0000 C   0  0  0  0  0  0  0  0  0  0  0  0
    4.4875   -5.7542    0.0000 C   0  0  0  0  0  0  0  0  0  0  0  0
   -1.9333   -2.8042    0.0000 C   0  0  0  0  0  0  0  0  0  0  0  0
   -3.3875   -5.2750    0.0000 C   0  0  0  0  0  0  0  0  0  0  0  0
    8.8042   -3.3167    0.0000 O   0  0  0  0  0  0  0  0  0  0  0  0
    9.8375   -2.8667    0.0000 O   0  0  0  0  0  0  0  0  0  0  0  0
    2.3667   -2.0167    0.0000 C   0  0  0  0  0  0  0  0  0  0  0  0
    0.2125   -3.2375    0.0000 O   0  0  0  0  0  0  0  0  0  0  0  0
    6.6375   -5.3625    0.0000 O   0  0  0  0  0  0  0  0  0  0  0  0
    4.5042   -3.2792    0.0000 O   0  0  0  0  0  0  0  0  0  0  0  0
   -1.9583   -5.2875    0.0000 O   0  0  0  0  0  0  0  0  0  0  0  0
    2.3417   -5.3250    0.0000 O   0  0  0  0  0  0  0  0  0  0  0  0
   12.6417   -2.8167    0.0000 O   0  0  0  0  0  0  0  0  0  0  0  0
   -0.5250   -5.3000    0.0000 C   0  0  0  0  0  0  0  0  0  0  0  0
   -1.9333   -1.9792    0.0000 O   0  0  0  0  0  0  0  0  0  0  0  0
    4.4792   -6.5875    0.0000 O   0  0  0  0  0  0  0  0  0  0  0  0
   -4.1083   -5.6792    0.0000 O   0  0  0  0  0  0  0  0  0  0  0  0
    3.0917   -1.6125    0.0000 O   0  0  0  0  0  0  0  0  0  0  0  0
    1.6417   -3.2542    0.0000 C   0  0  0  0  0  0  0  0  0  0  0  0
    8.0667   -5.3792    0.0000 C   0  0  0  0  0  0  0  0  0  0  0  0
    9.5917   -5.3792    0.0000 C   0  0  0  0  0  0  0  0  0  0  0  0
    5.9417   -3.2917    0.0000 C   0  0  0  0  0  0  0  0  0  0  0  0
    2.3667   -2.8417    0.0000 C   0  0  0  0  0  0  0  0  0  0  0  0
   -1.2208   -3.2250    0.0000 O   0  0  0  0  0  0  0  0  0  0  0  0
    5.2042   -5.3500    0.0000 O   0  0  0  0  0  0  0  0  0  0  0  0
    1.6542   -1.6000    0.0000 O   0  0  0  0  0  0  0  0  0  0  0  0
   10.8167   -4.8542    0.0000 C   0  0  0  0  0  0  0  0  0  0  0  0
    0.1875   -5.7167    0.0000 O   0  0  0  0  0  0  0  0  0  0  0  0
   10.8042   -1.8167    0.0000 C   0  0  0  0  0  0  0  0  0  0  0  0
   12.5750   -1.3875    0.0000 C   0  0  0  0  0  0  0  0  0  0  0  0
   10.3917   -5.5667    0.0000 C   0  0  0  0  0  0  0  0  0  0  0  0
   -2.6750   -5.6917    0.0000 C   0  0  0  0  0  0  0  0  0  0  0  0
   -1.2458   -5.7042    0.0000 C   0  0  0  0  0  0  0  0  0  0  0  0
    7.3500   -5.7792    0.0000 C   0  0  0  0  0  0  0  0  0  0  0  0
    8.7792   -5.7917    0.0000 C   0  0  0  0  0  0  0  0  0  0  0  0
    6.6625   -2.8792    0.0000 C   0  0  0  0  0  0  0  0  0  0  0  0
    5.2292   -2.8667    0.0000 C   0  0  0  0  0  0  0  0  0  0  0  0
   10.9792   -1.0042    0.0000 C   0  0  0  0  0  0  0  0  0  0  0  0
   13.4000   -1.3500    0.0000 C   0  0  0  0  0  0  0  0  0  0  0  0
   13.7792   -0.6167    0.0000 C   0  0  0  0  0  0  0  0  0  0  0  0
   14.6042   -0.5792    0.0000 C   0  0  0  0  0  0  0  0  0  0  0  0
   10.3750   -0.4542    0.0000 C   0  0  0  0  0  0  0  0  0  0  0  0
  2  1  1  0
 11  3  1  1
  4  5  1  0
  5 16  1  0
  6  8  1  0
  4  7  1  6
 10  8  1  6
 18  9  1  1
 10  2  1  0
 11  1  1  0
 12  7  1  0
 13  9  1  0
 14  3  1  0
 15 17  1  0
 26 16  1  1
 19 17  1  6
 18  6  1  0
 19 13  1  0
 20 12  1  0
 19 21  1  0
 20 22  1  1
 23 14  1  0
 24 23  1  0
 25 20  1  0
 26 15  1  0
 27 21  1  0
 28 22  1  0
 29 25  1  0
 30  2  2  0
 31  3  2  0
 32 48  1  0
 33  5  2  0
 34  6  2  0
 35 13  2  0
 36 12  2  0
 37 15  2  0
 38 24  2  0
  4 39  1  0
 40 28  2  0
 41 27  2  0
 42 29  2  0
 43 32  2  0
 26 44  1  0
 10 45  1  0
 46  1  1  0
 18 47  1  0
 48 44  1  0
 49 28  1  0
 50 27  1  0
 51 32  1  0
 11 52  1  0
 39 53  1  6
 54 23  1  0
 55 24  1  0
 56 46  1  0
 57 29  1  0
 58 39  1  0
 59 45  1  0
 60 45  1  0
 61 47  1  0
 62 47  1  0
 63 54  1  0
 64 55  1  0
 65 64  1  0
 66 65  1  0
 67 63  1  0
 52 56  1  0
M  END

> <chembl_id>
CHEMBL267165

> <chembl_pref_name>
None

$$$$

     RDKit          2D

 72 73  0  0  1  0  0  0  0  0999 V2000
    8.8792   -4.5625    0.0000 N   0  0  0  0  0  0  0  0  0  0  0  0
    8.1667   -4.1417    0.0000 C   0  0  0  0  0  0  0  0  0  0  0  0
    9.8167   -3.4250    0.0000 C   0  0  0  0  0  0  0  0  0  0  0  0
   -1.1458   -4.4750    0.0000 C   0  0  0  0  0  0  0  0  0  0  0  0
   12.5750    1.0208    0.0000 N   0  0  0  0  0  0  0  0  0  0  0  0
   -0.4208   -4.0667    0.0000 C   0  0  0  0  0  0  0  0  0  0  0  0
    6.0167   -4.5375    0.0000 C   0  0  0  0  0  0  0  0  0  0  0  0
   -1.8583   -4.0500    0.0000 N   0  0  0  0  0  0  0  0  0  0  0  0
    6.7292   -4.1292    0.0000 N   0  0  0  0  0  0  0  0  0  0  0  0
    4.5792   -4.5250    0.0000 N   0  0  0  0  0  0  0  0  0  0  0  0
    7.4500   -4.5542    0.0000 C   0  0  0  0  0  0  0  0  0  0  0  0
    9.6375   -4.2292    0.0000 C   0  0  0  0  0  0  0  0  0  0  0  0
   -2.5750   -4.4542    0.0000 C   0  0  0  0  0  0  0  0  0  0  0  0
    3.8667   -4.1042    0.0000 C   0  0  0  0  0  0  0  0  0  0  0  0
   10.6042   -3.1792    0.0000 N   0  0  0  0  0  0  0  0  0  0  0  0
   11.5667   -2.1250    0.0000 C   0  0  0  0  0  0  0  0  0  0  0  0
   10.7792   -2.3750    0.0000 N   0  0  0  0  0  0  0  0  0  0  0  0
    1.7167   -4.5000    0.0000 C   0  0  0  0  0  0  0  0  0  0  0  0
    0.2875   -4.4792    0.0000 N   0  0  0  0  0  0  0  0  0  0  0  0
    2.4375   -4.0917    0.0000 N   0  0  0  0  0  0  0  0  0  0  0  0
    5.3042   -4.1167    0.0000 C   0  0  0  0  0  0  0  0  0  0  0  0
    3.1542   -4.5042    0.0000 C   0  0  0  0  0  0  0  0  0  0  0  0
   -3.2958   -4.0417    0.0000 C   0  0  0  0  0  0  0  0  0  0  0  0
    3.1417   -5.3375    0.0000 C   0  0  0  0  0  0  0  0  0  0  0  0
   -3.2833   -3.2167    0.0000 C   0  0  0  0  0  0  0  0  0  0  0  0
   -4.0083   -4.4417    0.0000 N   0  0  0  0  0  0  0  0  0  0  0  0
    1.0042   -4.0792    0.0000 C   0  0  0  0  0  0  0  0  0  0  0  0
   -2.5625   -2.8042    0.0000 C   0  0  0  0  0  0  0  0  0  0  0  0
    3.8542   -5.7542    0.0000 C   0  0  0  0  0  0  0  0  0  0  0  0
   12.3250    0.2333    0.0000 C   0  0  0  0  0  0  0  0  0  0  0  0
   -4.0208   -5.2750    0.0000 C   0  0  0  0  0  0  0  0  0  0  0  0
   13.3792    1.2000    0.0000 O   0  0  0  0  0  0  0  0  0  0  0  0
   11.8167   -1.3375    0.0000 C   0  0  0  0  0  0  0  0  0  0  0  0
    8.1750   -3.3167    0.0000 O   0  0  0  0  0  0  0  0  0  0  0  0
   12.0167    1.6333    0.0000 O   0  0  0  0  0  0  0  0  0  0  0  0
    9.2042   -2.8667    0.0000 O   0  0  0  0  0  0  0  0  0  0  0  0
    1.7417   -2.0167    0.0000 C   0  0  0  0  0  0  0  0  0  0  0  0
   -0.4208   -3.2375    0.0000 O   0  0  0  0  0  0  0  0  0  0  0  0
    6.0042   -5.3625    0.0000 O   0  0  0  0  0  0  0  0  0  0  0  0
   12.1167   -2.7292    0.0000 O   0  0  0  0  0  0  0  0  0  0  0  0
    3.8792   -3.2792    0.0000 O   0  0  0  0  0  0  0  0  0  0  0  0
   -2.5833   -5.2875    0.0000 O   0  0  0  0  0  0  0  0  0  0  0  0
    1.7125   -5.3250    0.0000 O   0  0  0  0  0  0  0  0  0  0  0  0
   -1.1583   -5.3000    0.0000 C   0  0  0  0  0  0  0  0  0  0  0  0
    3.8500   -6.5875    0.0000 O   0  0  0  0  0  0  0  0  0  0  0  0
   -2.5583   -1.9792    0.0000 O   0  0  0  0  0  0  0  0  0  0  0  0
   -4.7333   -5.6792    0.0000 O   0  0  0  0  0  0  0  0  0  0  0  0
    2.4625   -1.6125    0.0000 O   0  0  0  0  0  0  0  0  0  0  0  0
   11.5125    0.0583    0.0000 C   0  0  0  0  0  0  0  0  0  0  0  0
   12.8792   -0.3792    0.0000 C   0  0  0  0  0  0  0  0  0  0  0  0
   11.2667   -0.7292    0.0000 C   0  0  0  0  0  0  0  0  0  0  0  0
   12.6250   -1.1667    0.0000 C   0  0  0  0  0  0  0  0  0  0  0  0
    1.0167   -3.2542    0.0000 C   0  0  0  0  0  0  0  0  0  0  0  0
    7.4417   -5.3792    0.0000 C   0  0  0  0  0  0  0  0  0  0  0  0
    8.9625   -5.3792    0.0000 C   0  0  0  0  0  0  0  0  0  0  0  0
    5.3125   -3.2917    0.0000 C   0  0  0  0  0  0  0  0  0  0  0  0
    1.7375   -2.8417    0.0000 C   0  0  0  0  0  0  0  0  0  0  0  0
    4.5792   -5.3542    0.0000 O   0  0  0  0  0  0  0  0  0  0  0  0
   -1.8500   -3.2250    0.0000 O   0  0  0  0  0  0  0  0  0  0  0  0
    1.0292   -1.6000    0.0000 O   0  0  0  0  0  0  0  0  0  0  0  0
   10.1875   -4.8542    0.0000 C   0  0  0  0  0  0  0  0  0  0  0  0
   -0.4458   -5.7167    0.0000 O   0  0  0  0  0  0  0  0  0  0  0  0
   10.1750   -1.8167    0.0000 C   0  0  0  0  0  0  0  0  0  0  0  0
    9.7667   -5.5667    0.0000 C   0  0  0  0  0  0  0  0  0  0  0  0
   -3.3083   -5.6917    0.0000 C   0  0  0  0  0  0  0  0  0  0  0  0
   -1.8750   -5.7042    0.0000 C   0  0  0  0  0  0  0  0  0  0  0  0
    6.7167   -5.7792    0.0000 C   0  0  0  0  0  0  0  0  0  0  0  0
    8.1542   -5.7917    0.0000 C   0  0  0  0  0  0  0  0  0  0  0  0
    6.0292   -2.8792    0.0000 C   0  0  0  0  0  0  0  0  0  0  0  0
    4.6000   -2.8667    0.0000 C   0  0  0  0  0  0  0  0  0  0  0  0
   10.3542   -1.0042    0.0000 C   0  0  0  0  0  0  0  0  0  0  0  0
    9.7417   -0.4542    0.0000 C   0  0  0  0  0  0  0  0  0  0  0  0
  2  1  1  0
 12  3  1  1
  4  6  1  0
  5 30  1  0
  6 19  1  0
  7  9  1  0
  4  8  1  6
 11  9  1  6
 21 10  1  1
 11  2  1  0
 12  1  1  0
 13  8  1  0
 14 10  1  0
 15  3  1  0
 16 17  1  0
 17 15  1  0
 18 20  1  0
 27 19  1  1
 22 20  1  6
 21  7  1  0
 22 14  1  0
 23 13  1  0
 22 24  1  0
 23 25  1  1
 26 23  1  0
 27 18  1  0
 28 25  1  0
 29 24  1  0
 30 50  2  0
 31 26  1  0
 32  5  1  0
 33 16  1  0
 34  2  2  0
 35  5  2  0
 36  3  2  0
 37 57  1  0
 38  6  2  0
 39  7  2  0
 40 16  2  0
 41 14  2  0
 42 13  2  0
 43 18  2  0
  4 44  1  0
 45 29  2  0
 46 28  2  0
 47 31  2  0
 48 37  2  0
 49 51  2  0
 50 52  1  0
 51 33  1  0
 52 33  2  0
 27 53  1  0
 11 54  1  0
 55  1  1  0
 21 56  1  0
 57 53  1  0
 58 29  1  0
 59 28  1  0
 60 37  1  0
 12 61  1  0
 44 62  1  6
 63 17  1  0
 64 55  1  0
 65 31  1  0
 66 44  1  0
 67 54  1  0
 68 54  1  0
 69 56  1  0
 70 56  1  0
 71 63  1  0
 72 71  1  0
 61 64  1  0
 49 30  1  0
M  CHG  2   5   1  32  -1
M  END

> <chembl_id>
CHEMBL384261

> <chembl_pref_name>
None

$$$$

     RDKit          2D

 68 68  0  0  1  0  0  0  0  0999 V2000
    9.5042   -4.5625    0.0000 N   0  0  0  0  0  0  0  0  0  0  0  0
    8.7917   -4.1417    0.0000 C   0  0  0  0  0  0  0  0  0  0  0  0
   12.2000   -2.1167    0.0000 C   0  0  0  0  0  0  0  0  0  0  0  0
   10.4500   -3.4250    0.0000 C   0  0  0  0  0  0  0  0  0  0  0  0
   -0.5208   -4.4750    0.0000 C   0  0  0  0  0  0  0  0  0  0  0  0
    0.2042   -4.0667    0.0000 C   0  0  0  0  0  0  0  0  0  0  0  0
    6.6417   -4.5375    0.0000 C   0  0  0  0  0  0  0  0  0  0  0  0
   -1.2250   -4.0542    0.0000 N   0  0  0  0  0  0  0  0  0  0  0  0
    7.3625   -4.1292    0.0000 N   0  0  0  0  0  0  0  0  0  0  0  0
    5.2125   -4.5250    0.0000 N   0  0  0  0  0  0  0  0  0  0  0  0
    8.0792   -4.5542    0.0000 C   0  0  0  0  0  0  0  0  0  0  0  0
   10.2667   -4.2292    0.0000 C   0  0  0  0  0  0  0  0  0  0  0  0
   11.4125   -2.3750    0.0000 N   0  0  0  0  0  0  0  0  0  0  0  0
   -1.9458   -4.4542    0.0000 C   0  0  0  0  0  0  0  0  0  0  0  0
    4.5000   -4.1042    0.0000 C   0  0  0  0  0  0  0  0  0  0  0  0
   11.2292   -3.1792    0.0000 N   0  0  0  0  0  0  0  0  0  0  0  0
    2.3500   -4.5000    0.0000 C   0  0  0  0  0  0  0  0  0  0  0  0
    0.9167   -4.4792    0.0000 N   0  0  0  0  0  0  0  0  0  0  0  0
    3.0667   -4.0917    0.0000 N   0  0  0  0  0  0  0  0  0  0  0  0
    5.9292   -4.1167    0.0000 C   0  0  0  0  0  0  0  0  0  0  0  0
    3.7792   -4.5042    0.0000 C   0  0  0  0  0  0  0  0  0  0  0  0
   12.7792   -1.5292    0.0000 C   0  0  0  0  0  0  0  0  0  0  0  0
   -2.6625   -4.0417    0.0000 C   0  0  0  0  0  0  0  0  0  0  0  0
    3.7750   -5.3375    0.0000 C   0  0  0  0  0  0  0  0  0  0  0  0
   -2.6583   -3.2167    0.0000 C   0  0  0  0  0  0  0  0  0  0  0  0
   -3.3833   -4.4417    0.0000 N   0  0  0  0  0  0  0  0  0  0  0  0
    1.6292   -4.0792    0.0000 C   0  0  0  0  0  0  0  0  0  0  0  0
    4.4875   -5.7542    0.0000 C   0  0  0  0  0  0  0  0  0  0  0  0
   -1.9333   -2.8042    0.0000 C   0  0  0  0  0  0  0  0  0  0  0  0
   -3.3875   -5.2750    0.0000 C   0  0  0  0  0  0  0  0  0  0  0  0
   12.4167   -2.9167    0.0000 O   0  0  0  0  0  0  0  0  0  0  0  0
    8.8042   -3.3167    0.0000 O   0  0  0  0  0  0  0  0  0  0  0  0
    9.8375   -2.8667    0.0000 O   0  0  0  0  0  0  0  0  0  0  0  0
    2.3667   -2.0167    0.0000 C   0  0  0  0  0  0  0  0  0  0  0  0
    0.2125   -3.2375    0.0000 O   0  0  0  0  0  0  0  0  0  0  0  0
    6.6375   -5.3625    0.0000 O   0  0  0  0  0  0  0  0  0  0  0  0
    4.5042   -3.2792    0.0000 O   0  0  0  0  0  0  0  0  0  0  0  0
   -1.9583   -5.2875    0.0000 O   0  0  0  0  0  0  0  0  0  0  0  0
    2.3417   -5.3250    0.0000 O   0  0  0  0  0  0  0  0  0  0  0  0
   12.5625   -0.7375    0.0000 O   0  0  0  0  0  0  0  0  0  0  0  0
   -0.5250   -5.3000    0.0000 C   0  0  0  0  0  0  0  0  0  0  0  0
    4.4792   -6.5875    0.0000 O   0  0  0  0  0  0  0  0  0  0  0  0
   -1.9333   -1.9792    0.0000 O   0  0  0  0  0  0  0  0  0  0  0  0
   -4.1083   -5.6792    0.0000 O   0  0  0  0  0  0  0  0  0  0  0  0
    3.0917   -1.6125    0.0000 O   0  0  0  0  0  0  0  0  0  0  0  0
    1.6417   -3.2542    0.0000 C   0  0  0  0  0  0  0  0  0  0  0  0
    8.0667   -5.3792    0.0000 C   0  0  0  0  0  0  0  0  0  0  0  0
    9.5917   -5.3792    0.0000 C   0  0  0  0  0  0  0  0  0  0  0  0
    5.9417   -3.2917    0.0000 C   0  0  0  0  0  0  0  0  0  0  0  0
    2.3667   -2.8417    0.0000 C   0  0  0  0  0  0  0  0  0  0  0  0
   13.5792   -1.7417    0.0000 O   0  0  0  0  0  0  0  0  0  0  0  0
   -1.2208   -3.2250    0.0000 O   0  0  0  0  0  0  0  0  0  0  0  0
    5.2042   -5.3542    0.0000 O   0  0  0  0  0  0  0  0  0  0  0  0
    1.6542   -1.6000    0.0000 O   0  0  0  0  0  0  0  0  0  0  0  0
   10.8167   -4.8542    0.0000 C   0  0  0  0  0  0  0  0  0  0  0  0
   10.8042   -1.8167    0.0000 C   0  0  0  0  0  0  0  0  0  0  0  0
    0.1875   -5.7167    0.0000 O   0  0  0  0  0  0  0  0  0  0  0  0
   10.3917   -5.5667    0.0000 C   0  0  0  0  0  0  0  0  0  0  0  0
   -2.6750   -5.6917    0.0000 C   0  0  0  0  0  0  0  0  0  0  0  0
   -1.2458   -5.7042    0.0000 C   0  0  0  0  0  0  0  0  0  0  0  0
    8.7792   -5.7917    0.0000 C   0  0  0  0  0  0  0  0  0  0  0  0
    7.3500   -5.7792    0.0000 C   0  0  0  0  0  0  0  0  0  0  0  0
    5.2292   -2.8667    0.0000 C   0  0  0  0  0  0  0  0  0  0  0  0
    6.6625   -2.8792    0.0000 C   0  0  0  0  0  0  0  0  0  0  0  0
   14.1542   -1.1542    0.0000 C   0  0  0  0  0  0  0  0  0  0  0  0
   10.9792   -1.0042    0.0000 C   0  0  0  0  0  0  0  0  0  0  0  0
   14.9542   -1.3667    0.0000 C   0  0  0  0  0  0  0  0  0  0  0  0
   10.3750   -0.4542    0.0000 C   0  0  0  0  0  0  0  0  0  0  0  0
  2  1  1  0
  3 13  1  0
 12  4  1  1
  5  6  1  0
  6 18  1  0
  7  9  1  0
  5  8  1  6
 11  9  1  6
 20 10  1  1
 11  2  1  0
 12  1  1  0
 13 16  1  0
 14  8  1  0
 15 10  1  0
 16  4  1  0
 17 19  1  0
 27 18  1  1
 21 19  1  6
 20  7  1  0
 21 15  1  0
 22  3  1  0
 23 14  1  0
 21 24  1  0
 23 25  1  1
 26 23  1  0
 27 17  1  0
 28 24  1  0
 29 25  1  0
 30 26  1  0
 31  3  2  0
 32  2  2  0
 33  4  2  0
 34 50  1  0
 35  6  2  0
 36  7  2  0
 37 15  2  0
 38 14  2  0
 39 17  2  0
 40 22  2  0
  5 41  1  0
 42 28  2  0
 43 29  2  0
 44 30  2  0
 45 34  2  0
 27 46  1  0
 11 47  1  0
 48  1  1  0
 20 49  1  0
 50 46  1  0
 51 22  1  0
 52 29  1  0
 53 28  1  0
 54 34  1  0
 12 55  1  0
 56 13  1  0
 41 57  1  6
 58 48  1  0
 59 30  1  0
 60 41  1  0
 61 47  1  0
 62 47  1  0
 63 49  1  0
 64 49  1  0
 65 51  1  0
 66 56  1  0
 67 65  1  0
 68 66  1  0
 55 58  1  0
M  END

> <chembl_id>
CHEMBL267166

> <chembl_pref_name>
None

$$$$

     RDKit          2D

 65 65  0  0  1  0  0  0  0  0999 V2000
   10.1250   -4.5625    0.0000 N   0  0  0  0  0  0  0  0  0  0  0  0
    9.4125   -4.1417    0.0000 C   0  0  0  0  0  0  0  0  0  0  0  0
   11.0667   -3.4250    0.0000 C   0  0  0  0  0  0  0  0  0  0  0  0
    0.1000   -4.4750    0.0000 C   0  0  0  0  0  0  0  0  0  0  0  0
    0.8250   -4.0667    0.0000 C   0  0  0  0  0  0  0  0  0  0  0  0
    7.2625   -4.5375    0.0000 C   0  0  0  0  0  0  0  0  0  0  0  0
   -0.6125   -4.0500    0.0000 N   0  0  0  0  0  0  0  0  0  0  0  0
    7.9792   -4.1292    0.0000 N   0  0  0  0  0  0  0  0  0  0  0  0
    5.8292   -4.5250    0.0000 N   0  0  0  0  0  0  0  0  0  0  0  0
    8.6917   -4.5500    0.0000 C   0  0  0  0  0  0  0  0  0  0  0  0
   10.8792   -4.2292    0.0000 C   0  0  0  0  0  0  0  0  0  0  0  0
   -1.3333   -4.4542    0.0000 C   0  0  0  0  0  0  0  0  0  0  0  0
    5.1167   -4.1042    0.0000 C   0  0  0  0  0  0  0  0  0  0  0  0
   11.8500   -3.1792    0.0000 N   0  0  0  0  0  0  0  0  0  0  0  0
    2.9667   -4.5000    0.0000 C   0  0  0  0  0  0  0  0  0  0  0  0
    1.5292   -4.4792    0.0000 N   0  0  0  0  0  0  0  0  0  0  0  0
    3.6792   -4.0917    0.0000 N   0  0  0  0  0  0  0  0  0  0  0  0
    6.5500   -4.1167    0.0000 C   0  0  0  0  0  0  0  0  0  0  0  0
    4.4000   -4.5042    0.0000 C   0  0  0  0  0  0  0  0  0  0  0  0
   12.8167   -2.1167    0.0000 C   0  0  0  0  0  0  0  0  0  0  0  0
   -2.0458   -4.0417    0.0000 C   0  0  0  0  0  0  0  0  0  0  0  0
   12.0292   -2.3750    0.0000 N   0  0  0  0  0  0  0  0  0  0  0  0
    4.3917   -5.3375    0.0000 C   0  0  0  0  0  0  0  0  0  0  0  0
   -2.0375   -3.2167    0.0000 C   0  0  0  0  0  0  0  0  0  0  0  0
   -2.7625   -4.4417    0.0000 N   0  0  0  0  0  0  0  0  0  0  0  0
    2.2500   -4.0792    0.0000 C   0  0  0  0  0  0  0  0  0  0  0  0
   -1.3208   -2.8042    0.0000 C   0  0  0  0  0  0  0  0  0  0  0  0
    5.1042   -5.7542    0.0000 C   0  0  0  0  0  0  0  0  0  0  0  0
   -2.7708   -5.2750    0.0000 C   0  0  0  0  0  0  0  0  0  0  0  0
    9.4167   -3.3167    0.0000 O   0  0  0  0  0  0  0  0  0  0  0  0
   10.4542   -2.8667    0.0000 O   0  0  0  0  0  0  0  0  0  0  0  0
    2.9875   -2.0167    0.0000 C   0  0  0  0  0  0  0  0  0  0  0  0
    0.8292   -3.2375    0.0000 O   0  0  0  0  0  0  0  0  0  0  0  0
    7.2542   -5.3625    0.0000 O   0  0  0  0  0  0  0  0  0  0  0  0
   -1.3375   -5.2875    0.0000 O   0  0  0  0  0  0  0  0  0  0  0  0
    5.1250   -3.2792    0.0000 O   0  0  0  0  0  0  0  0  0  0  0  0
    2.9542   -5.3250    0.0000 O   0  0  0  0  0  0  0  0  0  0  0  0
   13.1000   -2.8917    0.0000 O   0  0  0  0  0  0  0  0  0  0  0  0
    0.0917   -5.3000    0.0000 C   0  0  0  0  0  0  0  0  0  0  0  0
    5.0917   -6.5875    0.0000 O   0  0  0  0  0  0  0  0  0  0  0  0
   -1.3125   -1.9792    0.0000 O   0  0  0  0  0  0  0  0  0  0  0  0
   -3.4875   -5.6792    0.0000 O   0  0  0  0  0  0  0  0  0  0  0  0
    3.7042   -1.6125    0.0000 O   0  0  0  0  0  0  0  0  0  0  0  0
    2.2542   -3.2542    0.0000 C   0  0  0  0  0  0  0  0  0  0  0  0
    8.6875   -5.3792    0.0000 C   0  0  0  0  0  0  0  0  0  0  0  0
   10.2042   -5.3792    0.0000 C   0  0  0  0  0  0  0  0  0  0  0  0
    6.5542   -3.2917    0.0000 C   0  0  0  0  0  0  0  0  0  0  0  0
    2.9792   -2.8417    0.0000 C   0  0  0  0  0  0  0  0  0  0  0  0
   -0.6083   -3.2250    0.0000 O   0  0  0  0  0  0  0  0  0  0  0  0
    5.8250   -5.3542    0.0000 O   0  0  0  0  0  0  0  0  0  0  0  0
    2.2750   -1.6000    0.0000 O   0  0  0  0  0  0  0  0  0  0  0  0
   13.3417   -1.4792    0.0000 C   0  0  0  0  0  0  0  0  0  0  0  0
   14.1542   -1.6250    0.0000 Br  0  0  0  0  0  0  0  0  0  0  0  0
   11.4292   -4.8542    0.0000 C   0  0  0  0  0  0  0  0  0  0  0  0
    0.8042   -5.7167    0.0000 O   0  0  0  0  0  0  0  0  0  0  0  0
   11.4167   -1.8167    0.0000 C   0  0  0  0  0  0  0  0  0  0  0  0
   11.0125   -5.5667    0.0000 C   0  0  0  0  0  0  0  0  0  0  0  0
   -2.0583   -5.6917    0.0000 C   0  0  0  0  0  0  0  0  0  0  0  0
   -0.6333   -5.7042    0.0000 C   0  0  0  0  0  0  0  0  0  0  0  0
    9.4000   -5.7917    0.0000 C   0  0  0  0  0  0  0  0  0  0  0  0
    7.9667   -5.7792    0.0000 C   0  0  0  0  0  0  0  0  0  0  0  0
    5.8417   -2.8667    0.0000 C   0  0  0  0  0  0  0  0  0  0  0  0
    7.2792   -2.8792    0.0000 C   0  0  0  0  0  0  0  0  0  0  0  0
   11.6000   -1.0042    0.0000 C   0  0  0  0  0  0  0  0  0  0  0  0
   10.9917   -0.4542    0.0000 C   0  0  0  0  0  0  0  0  0  0  0  0
  2  1  1  0
 11  3  1  1
  4  5  1  0
  5 16  1  0
  6  8  1  0
  4  7  1  6
 10  8  1  6
 18  9  1  1
 10  2  1  0
 11  1  1  0
 12  7  1  0
 13  9  1  0
 14  3  1  0
 15 17  1  0
 26 16  1  1
 19 17  1  6
 18  6  1  0
 19 13  1  0
 20 22  1  0
 21 12  1  0
 22 14  1  0
 19 23  1  0
 21 24  1  1
 25 21  1  0
 26 15  1  0
 27 24  1  0
 28 23  1  0
 29 25  1  0
 30  2  2  0
 31  3  2  0
 32 48  1  0
 33  5  2  0
 34  6  2  0
 35 12  2  0
 36 13  2  0
 37 15  2  0
 38 20  2  0
  4 39  1  0
 40 28  2  0
 41 27  2  0
 42 29  2  0
 43 32  2  0
 26 44  1  0
 10 45  1  0
 46  1  1  0
 18 47  1  0
 48 44  1  0
 49 27  1  0
 50 28  1  0
 51 32  1  0
 52 20  1  0
 53 52  1  0
 11 54  1  0
 39 55  1  6
 56 22  1  0
 57 46  1  0
 58 29  1  0
 59 39  1  0
 60 45  1  0
 61 45  1  0
 62 47  1  0
 63 47  1  0
 64 56  1  0
 65 64  1  0
 54 57  1  0
M  END

> <chembl_id>
CHEMBL6679

> <chembl_pref_name>
None

$$$$

     RDKit          2D

 25 27  0  0  0  0  0  0  0  0999 V2000
    4.3542   -4.0917    0.0000 S   0  0  0  0  0  0  0  0  0  0  0  0
    5.0625   -4.5042    0.0000 N   0  0  0  0  0  0  0  0  0  0  0  0
    4.3542   -3.2667    0.0000 C   0  0  0  0  0  0  0  0  0  0  0  0
    5.7792   -4.0792    0.0000 C   0  0  0  0  0  0  0  0  0  0  0  0
    3.6292   -2.8542    0.0000 C   0  0  0  0  0  0  0  0  0  0  0  0
    3.6292   -2.0250    0.0000 C   0  0  0  0  0  0  0  0  0  0  0  0
    6.4875   -2.8375    0.0000 N   0  0  0  0  0  0  0  0  0  0  0  0
    5.7667   -3.2542    0.0000 N   0  0  0  0  0  0  0  0  0  0  0  0
    2.9042   -1.6042    0.0000 C   0  0  0  0  0  0  0  0  0  0  0  0
    7.2125   -3.2417    0.0000 C   0  0  0  0  0  0  0  0  0  0  0  0
    3.5125   -4.0792    0.0000 O   0  0  0  0  0  0  0  0  0  0  0  0
    4.3417   -4.9250    0.0000 O   0  0  0  0  0  0  0  0  0  0  0  0
    7.2125   -4.0792    0.0000 C   0  0  0  0  0  0  0  0  0  0  0  0
    6.5042   -4.5000    0.0000 C   0  0  0  0  0  0  0  0  0  0  0  0
    2.9042   -0.7792    0.0000 N   0  0  0  0  0  0  0  0  0  0  0  0
    7.9250   -2.8292    0.0000 Cl  0  0  0  0  0  0  0  0  0  0  0  0
    5.0667   -2.8500    0.0000 C   0  0  0  0  0  0  0  0  0  0  0  0
    2.9042   -3.2667    0.0000 C   0  0  0  0  0  0  0  0  0  0  0  0
    4.3417   -1.6042    0.0000 C   0  0  0  0  0  0  0  0  0  0  0  0
    2.1917   -2.0250    0.0000 C   0  0  0  0  0  0  0  0  0  0  0  0
    5.0667   -2.0167    0.0000 C   0  0  0  0  0  0  0  0  0  0  0  0
    2.1917   -2.8542    0.0000 C   0  0  0  0  0  0  0  0  0  0  0  0
    7.9375   -4.4917    0.0000 C   0  0  0  0  0  0  0  0  0  0  0  0
    3.6292   -0.3542    0.0000 C   0  0  0  0  0  0  0  0  0  0  0  0
    2.1875   -0.3625    0.0000 C   0  0  0  0  0  0  0  0  0  0  0  0
  2  1  1  0
  3  1  1  0
  4  2  1  0
  5  3  1  0
  6  5  2  0
  7  8  1  0
  8  4  2  0
  9  6  1  0
 10 13  1  0
 11  1  2  0
 12  1  2  0
 13 14  2  0
 14  4  1  0
 15  9  1  0
 16 10  1  0
 17  3  2  0
 18  5  1  0
 19 21  2  0
 20 22  1  0
 21 17  1  0
 22 18  2  0
 23 13  1  0
 24 15  1  0
 25 15  1  0
 19  6  1  0
 20  9  2  0
 10  7  2  0
M  END

> <chembl_id>
CHEMBL6660

> <chembl_pref_name>
None

$$$$

     RDKit          2D

 15 17  0  0  0  0  0  0  0  0999 V2000
    4.8917   -2.0292    0.0000 C   0  0  0  0  0  0  0  0  0  0  0  0
    3.4542   -2.0250    0.0000 C   0  0  0  0  0  0  0  0  0  0  0  0
    4.8917   -2.8542    0.0000 C   0  0  0  0  0  0  0  0  0  0  0  0
    4.1667   -3.2667    0.0000 N   0  0  0  0  0  0  0  0  0  0  0  0
    3.4542   -2.8500    0.0000 C   0  0  0  0  0  0  0  0  0  0  0  0
    5.7167   -2.0292    0.0000 O   0  0  0  0  0  0  0  0  0  0  0  0
    4.6417   -1.2417    0.0000 O   0  0  0  0  0  0  0  0  0  0  0  0
    2.7417   -1.6125    0.0000 C   0  0  0  0  0  0  0  0  0  0  0  0
    5.6042   -3.2667    0.0000 O   0  0  0  0  0  0  0  0  0  0  0  0
    2.7375   -0.7875    0.0000 Cl  0  0  0  0  0  0  0  0  0  0  0  0
    2.7417   -3.2667    0.0000 C   0  0  0  0  0  0  0  0  0  0  0  0
    2.0292   -2.8542    0.0000 C   0  0  0  0  0  0  0  0  0  0  0  0
    2.0292   -2.0250    0.0000 C   0  0  0  0  0  0  0  0  0  0  0  0
    5.3042   -0.7542    0.0000 C   0  0  0  0  0  0  0  0  0  0  0  0
    5.9750   -1.2417    0.0000 C   0  0  0  0  0  0  0  0  0  0  0  0
  2  1  1  0
  3  1  1  0
  4  3  1  0
  5  2  1  0
  6  1  1  0
  7  1  1  0
  8  2  2  0
  9  3  2  0
 10  8  1  0
 11  5  2  0
 12 13  2  0
 13  8  1  0
 14  7  1  0
 15  6  1  0
 14 15  1  0
  4  5  1  0
 12 11  1  0
M  END

> <chembl_id>
CHEMBL6651

> <chembl_pref_name>
None

$$$$

     RDKit          2D

 17 19  0  0  0  0  0  0  0  0999 V2000
    7.3750   -8.8792    0.0000 C   0  0  0  0  0  0  0  0  0  0  0  0
    5.9417   -8.8792    0.0000 C   0  0  0  0  0  0  0  0  0  0  0  0
    7.3750   -9.7042    0.0000 C   0  0  0  0  0  0  0  0  0  0  0  0
    3.8000   -8.4667    0.0000 N   0  0  0  0  0  0  0  0  0  0  0  0
    6.6542  -10.1167    0.0000 N   0  0  0  0  0  0  0  0  0  0  0  0
    5.9375   -9.7042    0.0000 C   0  0  0  0  0  0  0  0  0  0  0  0
    5.2250   -8.4667    0.0000 C   0  0  0  0  0  0  0  0  0  0  0  0
    4.5125   -8.8792    0.0000 C   0  0  0  0  0  0  0  0  0  0  0  0
    7.1250   -8.0917    0.0000 O   0  0  0  0  0  0  0  0  0  0  0  0
    8.2000   -8.8792    0.0000 O   0  0  0  0  0  0  0  0  0  0  0  0
    3.8000   -7.6417    0.0000 O   0  0  0  0  0  0  0  0  0  0  0  0
    3.0875   -8.8792    0.0000 O   0  0  0  0  0  0  0  0  0  0  0  0
    8.0875  -10.1167    0.0000 O   0  0  0  0  0  0  0  0  0  0  0  0
    5.2250  -10.1167    0.0000 C   0  0  0  0  0  0  0  0  0  0  0  0
    4.5125   -9.7042    0.0000 C   0  0  0  0  0  0  0  0  0  0  0  0
    7.7875   -7.6125    0.0000 C   0  0  0  0  0  0  0  0  0  0  0  0
    8.4542   -8.0917    0.0000 C   0  0  0  0  0  0  0  0  0  0  0  0
  2  1  1  0
  3  1  1  0
  4  8  1  0
  5  3  1  0
  6  2  1  0
  7  2  2  0
  8  7  1  0
  9  1  1  0
 10  1  1  0
 11  4  1  0
 12  4  2  0
 13  3  2  0
 14  6  2  0
 15  8  2  0
 16  9  1  0
 17 10  1  0
 16 17  1  0
  5  6  1  0
 14 15  1  0
M  CHG  2   4   1  11  -1
M  END

> <chembl_id>
CHEMBL6652

> <chembl_pref_name>
None

$$$$

     RDKit          2D

 18 19  0  0  0  0  0  0  0  0999 V2000
    5.4500   -3.5917    0.0000 C   0  0  0  0  0  0  0  0  0  0  0  0
    4.0292   -3.5917    0.0000 N   0  0  0  0  0  0  0  0  0  0  0  0
    4.0292   -4.4167    0.0000 N   0  0  0  0  0  0  0  0  0  0  0  0
    5.4500   -4.4167    0.0000 C   0  0  0  0  0  0  0  0  0  0  0  0
    4.7375   -3.1750    0.0000 C   0  0  0  0  0  0  0  0  0  0  0  0
    6.1667   -3.1792    0.0000 C   0  0  0  0  0  0  0  0  0  0  0  0
    4.7375   -4.8250    0.0000 C   0  0  0  0  0  0  0  0  0  0  0  0
    6.1667   -2.3542    0.0000 O   0  0  0  0  0  0  0  0  0  0  0  0
    4.7375   -7.2917    0.0000 N   0  0  0  0  0  0  0  0  0  0  0  0
    4.7375   -5.6500    0.0000 C   0  0  0  0  0  0  0  0  0  0  0  0
    4.7375   -2.3500    0.0000 Cl  0  0  0  0  0  0  0  0  0  0  0  0
    6.8792   -3.5917    0.0000 O   0  0  0  0  0  0  0  0  0  0  0  0
    4.0167   -6.8792    0.0000 C   0  0  0  0  0  0  0  0  0  0  0  0
    5.4542   -6.8792    0.0000 C   0  0  0  0  0  0  0  0  0  0  0  0
    4.0167   -6.0542    0.0000 C   0  0  0  0  0  0  0  0  0  0  0  0
    5.4500   -6.0542    0.0000 C   0  0  0  0  0  0  0  0  0  0  0  0
    7.5917   -3.1792    0.0000 C   0  0  0  0  0  0  0  0  0  0  0  0
    8.3042   -3.6000    0.0000 C   0  0  0  0  0  0  0  0  0  0  0  0
  2  5  2  0
  3  2  1  0
  4  1  2  0
  5  1  1  0
  6  1  1  0
  7  4  1  0
  8  6  2  0
  9 14  1  0
 10  7  1  0
 11  5  1  0
 12  6  1  0
 13 15  1  0
 14 16  2  0
 15 10  2  0
 16 10  1  0
 17 12  1  0
 18 17  1  0
  3  7  2  0
 13  9  2  0
M  END

> <chembl_id>
CHEMBL266661

> <chembl_pref_name>
None

$$$$

     RDKit          2D

 16 19  0  0  0  0  0  0  0  0999 V2000
    3.1667    0.9458    0.0000 C   0  0  0  0  0  0  0  0  0  0  0  0
    3.9167    1.2833    0.0000 C   0  0  0  0  0  0  0  0  0  0  0  0
    2.5000    1.4250    0.0000 C   0  0  0  0  0  0  0  0  0  0  0  0
    2.9125    0.1583    0.0000 N   0  0  0  0  0  0  0  0  0  0  0  0
    4.0042    2.1000    0.0000 N   0  0  0  0  0  0  0  0  0  0  0  0
    1.8292    0.9458    0.0000 C   0  0  0  0  0  0  0  0  0  0  0  0
    2.0875    0.1583    0.0000 C   0  0  0  0  0  0  0  0  0  0  0  0
    4.6750    0.9458    0.0000 N   0  0  0  0  0  0  0  0  0  0  0  0
    2.5792    2.2500    0.0000 C   0  0  0  0  0  0  0  0  0  0  0  0
    3.3375    2.5875    0.0000 C   0  0  0  0  0  0  0  0  0  0  0  0
    5.2292    1.5583    0.0000 C   0  0  0  0  0  0  0  0  0  0  0  0
    4.8167    2.2708    0.0000 C   0  0  0  0  0  0  0  0  0  0  0  0
    1.0250    1.1208    0.0000 C   0  0  0  0  0  0  0  0  0  0  0  0
    1.5375   -0.4542    0.0000 C   0  0  0  0  0  0  0  0  0  0  0  0
    0.4667    0.5083    0.0000 C   0  0  0  0  0  0  0  0  0  0  0  0
    0.7292   -0.2875    0.0000 C   0  0  0  0  0  0  0  0  0  0  0  0
  2  1  1  0
  3  1  2  0
  4  1  1  0
  5  2  1  0
  6  3  1  0
  7  4  1  0
  8  2  2  0
  9  3  1  0
 10  9  1  0
 11  8  1  0
 12  5  1  0
 13  6  1  0
 14  7  1  0
 15 13  2  0
 16 14  2  0
  6  7  2  0
 10  5  1  0
 12 11  1  0
 16 15  1  0
M  END

> <chembl_id>
CHEMBL267399

> <chembl_pref_name>
None

$$$$

     RDKit          2D

 28 30  0  0  0  0  0  0  0  0999 V2000
    3.8125   -6.6042    0.0000 C   0  0  0  0  0  0  0  0  0  0  0  0
    3.8167   -7.4375    0.0000 N   0  0  0  0  0  0  0  0  0  0  0  0
    2.3792   -7.4417    0.0000 C   0  0  0  0  0  0  0  0  0  0  0  0
    3.1042   -7.8542    0.0000 C   0  0  0  0  0  0  0  0  0  0  0  0
    3.0917   -6.2000    0.0000 N   0  0  0  0  0  0  0  0  0  0  0  0
    2.3792   -6.6167    0.0000 C   0  0  0  0  0  0  0  0  0  0  0  0
    4.5250   -6.1917    0.0000 N   0  0  0  0  0  0  0  0  0  0  0  0
    1.6667   -7.8542    0.0000 C   0  0  0  0  0  0  0  0  0  0  0  0
    1.6667   -6.2042    0.0000 C   0  0  0  0  0  0  0  0  0  0  0  0
    0.9542   -7.4417    0.0000 C   0  0  0  0  0  0  0  0  0  0  0  0
    0.9542   -6.6167    0.0000 C   0  0  0  0  0  0  0  0  0  0  0  0
    6.6542   -4.1250    0.0000 C   0  0  0  0  0  0  0  0  0  0  0  0
    4.5167   -5.3667    0.0000 C   0  0  0  0  0  0  0  0  0  0  0  0
    5.2375   -6.6042    0.0000 C   0  0  0  0  0  0  0  0  0  0  0  0
    7.3750   -3.7042    0.0000 O   0  0  0  0  0  0  0  0  0  0  0  0
    3.1042   -8.6792    0.0000 N   0  0  0  0  0  0  0  0  0  0  0  0
    5.9417   -3.7125    0.0000 N   0  0  0  0  0  0  0  0  0  0  0  0
    6.6625   -4.9500    0.0000 C   0  0  0  0  0  0  0  0  0  0  0  0
    0.2417   -7.8542    0.0000 O   0  0  0  0  0  0  0  0  0  0  0  0
    0.2417   -6.2042    0.0000 O   0  0  0  0  0  0  0  0  0  0  0  0
    5.9500   -6.1875    0.0000 C   0  0  0  0  0  0  0  0  0  0  0  0
    5.2292   -4.9542    0.0000 C   0  0  0  0  0  0  0  0  0  0  0  0
    5.9500   -5.3625    0.0000 C   0  0  0  0  0  0  0  0  0  0  0  0
    5.9417   -2.8875    0.0000 C   0  0  0  0  0  0  0  0  0  0  0  0
    0.2417   -5.3792    0.0000 C   0  0  0  0  0  0  0  0  0  0  0  0
    0.2417   -8.6792    0.0000 C   0  0  0  0  0  0  0  0  0  0  0  0
    6.6542   -2.4750    0.0000 C   0  0  0  0  0  0  0  0  0  0  0  0
    6.6542   -1.6500    0.0000 C   0  0  0  0  0  0  0  0  0  0  0  0
  2  1  1  0
  3  6  1  0
  4  2  2  0
  5  1  2  0
  6  5  1  0
  7  1  1  0
  8  3  2  0
  9  6  2  0
 10 11  2  0
 11  9  1  0
 12 18  1  0
 13  7  1  0
 14  7  1  0
 15 12  2  0
 16  4  1  0
 17 12  1  0
 18 23  1  0
 19 10  1  0
 20 11  1  0
 21 14  1  0
 22 13  1  0
 23 21  1  0
 24 17  1  0
 25 20  1  0
 26 19  1  0
 27 24  1  0
 28 27  1  0
  4  3  1  0
 23 22  1  0
 10  8  1  0
M  END

> <chembl_id>
CHEMBL6766

> <chembl_pref_name>
None

$$$$

     RDKit          2D

 25 27  0  0  0  0  0  0  0  0999 V2000
    4.3292   -4.0917    0.0000 S   0  0  0  0  0  0  0  0  0  0  0  0
    5.0417   -4.5042    0.0000 N   0  0  0  0  0  0  0  0  0  0  0  0
    4.3292   -3.2667    0.0000 C   0  0  0  0  0  0  0  0  0  0  0  0
    5.7542   -4.0792    0.0000 C   0  0  0  0  0  0  0  0  0  0  0  0
    3.6125   -2.8542    0.0000 C   0  0  0  0  0  0  0  0  0  0  0  0
    3.6125   -2.0250    0.0000 C   0  0  0  0  0  0  0  0  0  0  0  0
    5.7500   -3.2542    0.0000 N   0  0  0  0  0  0  0  0  0  0  0  0
    2.8792   -1.6042    0.0000 C   0  0  0  0  0  0  0  0  0  0  0  0
    3.5000   -4.0792    0.0000 O   0  0  0  0  0  0  0  0  0  0  0  0
    4.3167   -4.9250    0.0000 O   0  0  0  0  0  0  0  0  0  0  0  0
    6.4792   -4.5000    0.0000 C   0  0  0  0  0  0  0  0  0  0  0  0
    2.8792   -0.7792    0.0000 N   0  0  0  0  0  0  0  0  0  0  0  0
    7.1917   -4.0792    0.0000 C   0  0  0  0  0  0  0  0  0  0  0  0
    6.4667   -2.8375    0.0000 C   0  0  0  0  0  0  0  0  0  0  0  0
    7.1917   -3.2417    0.0000 C   0  0  0  0  0  0  0  0  0  0  0  0
    7.9042   -2.8292    0.0000 Br  0  0  0  0  0  0  0  0  0  0  0  0
    5.0417   -2.8500    0.0000 C   0  0  0  0  0  0  0  0  0  0  0  0
    2.8792   -3.2667    0.0000 C   0  0  0  0  0  0  0  0  0  0  0  0
    4.3167   -1.6042    0.0000 C   0  0  0  0  0  0  0  0  0  0  0  0
    2.1750   -2.0250    0.0000 C   0  0  0  0  0  0  0  0  0  0  0  0
    5.0417   -2.0167    0.0000 C   0  0  0  0  0  0  0  0  0  0  0  0
    2.1750   -2.8542    0.0000 C   0  0  0  0  0  0  0  0  0  0  0  0
    6.4792   -5.3292    0.0000 C   0  0  0  0  0  0  0  0  0  0  0  0
    3.6125   -0.3542    0.0000 C   0  0  0  0  0  0  0  0  0  0  0  0
    2.1542   -0.3625    0.0000 C   0  0  0  0  0  0  0  0  0  0  0  0
  2  1  1  0
  3  1  1  0
  4  2  1  0
  5  3  1  0
  6  5  2  0
  7  4  2  0
  8  6  1  0
  9  1  2  0
 10  1  2  0
 11  4  1  0
 12  8  1  0
 13 11  2  0
 14  7  1  0
 15 13  1  0
 16 15  1  0
 17  3  2  0
 18  5  1  0
 19 21  2  0
 20 22  1  0
 21 17  1  0
 22 18  2  0
 23 11  1  0
 24 12  1  0
 25 12  1  0
 19  6  1  0
 20  8  2  0
 15 14  2  0
M  END

> <chembl_id>
CHEMBL268116

> <chembl_pref_name>
None

$$$$

     RDKit          2D

 31 34  0  0  0  0  0  0  0  0999 V2000
    5.4667   -5.6292    0.0000 C   0  0  0  0  0  0  0  0  0  0  0  0
    4.9792   -5.9792    0.0000 N   0  0  0  0  0  0  0  0  0  0  0  0
    1.6042   -4.4625    0.0000 C   0  0  0  0  0  0  0  0  0  0  0  0
    5.9500   -5.9792    0.0000 O   0  0  0  0  0  0  0  0  0  0  0  0
    2.1667   -4.2875    0.0000 C   0  0  0  0  0  0  0  0  0  0  0  0
    1.1917   -4.0250    0.0000 N   0  0  0  0  0  0  0  0  0  0  0  0
    2.7125   -5.2125    0.0000 C   0  0  0  0  0  0  0  0  0  0  0  0
    2.6625   -4.6167    0.0000 C   0  0  0  0  0  0  0  0  0  0  0  0
    1.3875   -5.0250    0.0000 C   0  0  0  0  0  0  0  0  0  0  0  0
    2.2750   -5.6250    0.0000 C   0  0  0  0  0  0  0  0  0  0  0  0
    1.6792   -5.5417    0.0000 C   0  0  0  0  0  0  0  0  0  0  0  0
    4.4125   -5.8000    0.0000 C   0  0  0  0  0  0  0  0  0  0  0  0
    5.7667   -6.5542    0.0000 C   0  0  0  0  0  0  0  0  0  0  0  0
    5.1667   -6.5542    0.0000 C   0  0  0  0  0  0  0  0  0  0  0  0
    5.4625   -5.0292    0.0000 O   0  0  0  0  0  0  0  0  0  0  0  0
    6.2250   -8.0750    0.0000 C   0  0  0  0  0  0  0  0  0  0  0  0
    3.2667   -5.4292    0.0000 C   0  0  0  0  0  0  0  0  0  0  0  0
    5.8750   -7.5917    0.0000 N   0  0  0  0  0  0  0  0  0  0  0  0
    0.7792   -5.0792    0.0000 O   0  0  0  0  0  0  0  0  0  0  0  0
    5.9792   -8.6250    0.0000 O   0  0  0  0  0  0  0  0  0  0  0  0
    4.2875   -5.2125    0.0000 C   0  0  0  0  0  0  0  0  0  0  0  0
    3.9667   -6.2000    0.0000 C   0  0  0  0  0  0  0  0  0  0  0  0
    3.3917   -6.0167    0.0000 C   0  0  0  0  0  0  0  0  0  0  0  0
    3.7167   -5.0250    0.0000 C   0  0  0  0  0  0  0  0  0  0  0  0
    0.3667   -3.1500    0.0000 O   0  0  0  0  0  0  0  0  0  0  0  0
    6.1167   -7.0417    0.0000 C   0  0  0  0  0  0  0  0  0  0  0  0
    0.6042   -4.1542    0.0000 C   0  0  0  0  0  0  0  0  0  0  0  0
    1.3667   -3.4500    0.0000 C   0  0  0  0  0  0  0  0  0  0  0  0
    6.8167   -8.0125    0.0000 C   0  0  0  0  0  0  0  0  0  0  0  0
    0.2000   -3.7250    0.0000 C   0  0  0  0  0  0  0  0  0  0  0  0
    0.9542   -3.0042    0.0000 C   0  0  0  0  0  0  0  0  0  0  0  0
  2  1  1  0
  3  5  2  0
  4  1  1  0
  5  8  1  0
  6  3  1  0
  7 17  1  0
  8  7  2  0
  9 11  1  0
 10  7  1  0
 11 10  2  0
 12  2  1  0
 13  4  1  0
 14  2  1  0
 15  1  2  0
 16 18  1  0
 17 23  1  0
 18 26  1  0
 19  9  2  0
 20 16  2  0
 21 12  2  0
 22 12  1  0
 23 22  2  0
 24 21  1  0
 25 31  1  0
 26 13  1  0
 27  6  1  0
 28  6  1  0
 29 16  1  0
 30 27  1  0
 31 28  1  0
 14 13  1  0
 24 17  2  0
  3  9  1  0
 25 30  1  0
M  END

> <chembl_id>
CHEMBL6729

> <chembl_pref_name>
None

$$$$

     RDKit          2D

 29 31  0  0  0  0  0  0  0  0999 V2000
    5.2500   -4.9292    0.0000 C   0  0  0  0  0  0  0  0  0  0  0  0
    4.7625   -5.2792    0.0000 N   0  0  0  0  0  0  0  0  0  0  0  0
    5.7292   -5.2792    0.0000 O   0  0  0  0  0  0  0  0  0  0  0  0
    2.4917   -4.5042    0.0000 C   0  0  0  0  0  0  0  0  0  0  0  0
    1.3875   -3.7542    0.0000 C   0  0  0  0  0  0  0  0  0  0  0  0
    2.4417   -3.9167    0.0000 C   0  0  0  0  0  0  0  0  0  0  0  0
    2.0542   -4.9167    0.0000 C   0  0  0  0  0  0  0  0  0  0  0  0
    1.9500   -3.5792    0.0000 C   0  0  0  0  0  0  0  0  0  0  0  0
    1.4667   -4.8375    0.0000 C   0  0  0  0  0  0  0  0  0  0  0  0
    1.1667   -4.3167    0.0000 C   0  0  0  0  0  0  0  0  0  0  0  0
    4.1917   -5.0917    0.0000 C   0  0  0  0  0  0  0  0  0  0  0  0
    5.5500   -5.8542    0.0000 C   0  0  0  0  0  0  0  0  0  0  0  0
    4.9500   -5.8542    0.0000 C   0  0  0  0  0  0  0  0  0  0  0  0
    5.2417   -4.3292    0.0000 O   0  0  0  0  0  0  0  0  0  0  0  0
    6.0042   -7.3667    0.0000 C   0  0  0  0  0  0  0  0  0  0  0  0
    3.0542   -4.7250    0.0000 C   0  0  0  0  0  0  0  0  0  0  0  0
    5.6542   -6.8875    0.0000 N   0  0  0  0  0  0  0  0  0  0  0  0
    0.5667   -4.3792    0.0000 O   0  0  0  0  0  0  0  0  0  0  0  0
    5.7667   -7.9167    0.0000 O   0  0  0  0  0  0  0  0  0  0  0  0
    3.7500   -5.4917    0.0000 C   0  0  0  0  0  0  0  0  0  0  0  0
    4.0667   -4.5042    0.0000 C   0  0  0  0  0  0  0  0  0  0  0  0
    3.5000   -4.3167    0.0000 C   0  0  0  0  0  0  0  0  0  0  0  0
    3.1792   -5.3125    0.0000 C   0  0  0  0  0  0  0  0  0  0  0  0
    0.7375   -2.3125    0.0000 C   0  0  0  0  0  0  0  0  0  0  0  0
    5.9000   -6.3375    0.0000 C   0  0  0  0  0  0  0  0  0  0  0  0
    0.9125   -1.7375    0.0000 C   0  0  0  0  0  0  0  0  0  0  0  0
    0.9750   -3.3167    0.0000 O   0  0  0  0  0  0  0  0  0  0  0  0
    1.1500   -2.7500    0.0000 C   0  0  0  0  0  0  0  0  0  0  0  0
    6.6042   -7.3042    0.0000 C   0  0  0  0  0  0  0  0  0  0  0  0
  2  1  1  0
  3  1  1  0
  4 16  1  0
  5  8  2  0
  6  4  2  0
  7  4  1  0
  8  6  1  0
  9  7  2  0
 10  9  1  0
 11  2  1  0
 12  3  1  0
 13  2  1  0
 14  1  2  0
 15 17  1  0
 16 22  2  0
 17 25  1  0
 18 10  2  0
 19 15  2  0
 20 11  1  0
 21 11  2  0
 22 21  1  0
 23 20  2  0
 24 28  1  0
 25 12  1  0
 26 24  2  0
 27  5  1  0
 28 27  1  0
 29 15  1  0
 13 12  1  0
 23 16  1  0
  5 10  1  0
M  END

> <chembl_id>
CHEMBL6918

> <chembl_pref_name>
None

$$$$

     RDKit          2D

 15 16  0  0  0  0  0  0  0  0999 V2000
    5.4500   -3.5917    0.0000 C   0  0  0  0  0  0  0  0  0  0  0  0
    6.1667   -3.1792    0.0000 C   0  0  0  0  0  0  0  0  0  0  0  0
    5.4500   -4.4167    0.0000 C   0  0  0  0  0  0  0  0  0  0  0  0
    4.7375   -4.8250    0.0000 C   0  0  0  0  0  0  0  0  0  0  0  0
    4.0292   -4.4167    0.0000 N   0  0  0  0  0  0  0  0  0  0  0  0
    4.0292   -3.5917    0.0000 N   0  0  0  0  0  0  0  0  0  0  0  0
    6.1667   -2.3542    0.0000 O   0  0  0  0  0  0  0  0  0  0  0  0
    4.7417   -7.3000    0.0000 N   0  0  0  0  0  0  0  0  0  0  0  0
    4.7375   -5.6500    0.0000 C   0  0  0  0  0  0  0  0  0  0  0  0
    6.8792   -3.5917    0.0000 N   0  0  0  0  0  0  0  0  0  0  0  0
    4.7375   -3.1750    0.0000 C   0  0  0  0  0  0  0  0  0  0  0  0
    5.4542   -6.8875    0.0000 C   0  0  0  0  0  0  0  0  0  0  0  0
    4.0292   -6.8917    0.0000 C   0  0  0  0  0  0  0  0  0  0  0  0
    4.0292   -6.0625    0.0000 C   0  0  0  0  0  0  0  0  0  0  0  0
    5.4542   -6.0625    0.0000 C   0  0  0  0  0  0  0  0  0  0  0  0
  2  1  1  0
  3  1  2  0
  4  3  1  0
  5  6  1  0
  6 11  2  0
  7  2  2  0
  8 12  1  0
  9  4  1  0
 10  2  1  0
 11  1  1  0
 12 15  2  0
 13 14  1  0
 14  9  2  0
 15  9  1  0
  5  4  2  0
 13  8  2  0
M  END

> <chembl_id>
CHEMBL7086

> <chembl_pref_name>
None

$$$$

     RDKit          2D

 17 18  0  0  0  0  0  0  0  0999 V2000
    5.4500   -3.5917    0.0000 C   0  0  0  0  0  0  0  0  0  0  0  0
    4.0292   -3.5917    0.0000 N   0  0  0  0  0  0  0  0  0  0  0  0
    4.0292   -4.4167    0.0000 N   0  0  0  0  0  0  0  0  0  0  0  0
    5.4500   -4.4167    0.0000 C   0  0  0  0  0  0  0  0  0  0  0  0
    4.7375   -3.1750    0.0000 C   0  0  0  0  0  0  0  0  0  0  0  0
    6.1667   -3.1792    0.0000 C   0  0  0  0  0  0  0  0  0  0  0  0
    4.7375   -4.8250    0.0000 C   0  0  0  0  0  0  0  0  0  0  0  0
    6.1667   -2.3542    0.0000 O   0  0  0  0  0  0  0  0  0  0  0  0
    4.7417   -7.3000    0.0000 N   0  0  0  0  0  0  0  0  0  0  0  0
    4.7375   -5.6500    0.0000 C   0  0  0  0  0  0  0  0  0  0  0  0
    6.8792   -3.5917    0.0000 N   0  0  0  0  0  0  0  0  0  0  0  0
    4.7375   -2.3500    0.0000 O   0  0  0  0  0  0  0  0  0  0  0  0
    4.0292   -6.8917    0.0000 C   0  0  0  0  0  0  0  0  0  0  0  0
    5.4542   -6.8875    0.0000 C   0  0  0  0  0  0  0  0  0  0  0  0
    5.4542   -6.0625    0.0000 C   0  0  0  0  0  0  0  0  0  0  0  0
    4.0292   -6.0625    0.0000 C   0  0  0  0  0  0  0  0  0  0  0  0
    5.4542   -1.9375    0.0000 C   0  0  0  0  0  0  0  0  0  0  0  0
  2  5  2  0
  3  2  1  0
  4  1  2  0
  5  1  1  0
  6  1  1  0
  7  4  1  0
  8  6  2  0
  9 13  2  0
 10  7  1  0
 11  6  1  0
 12  5  1  0
 13 16  1  0
 14 15  2  0
 15 10  1  0
 16 10  2  0
 17 12  1  0
  3  7  2  0
  9 14  1  0
M  END

> <chembl_id>
CHEMBL6930

> <chembl_pref_name>
None

$$$$

     RDKit          2D

 24 26  0  0  0  0  0  0  0  0999 V2000
    4.3250   -4.0917    0.0000 S   0  0  0  0  0  0  0  0  0  0  0  0
    4.3250   -3.2667    0.0000 C   0  0  0  0  0  0  0  0  0  0  0  0
    5.0375   -4.5042    0.0000 N   0  0  0  0  0  0  0  0  0  0  0  0
    3.6042   -2.8542    0.0000 C   0  0  0  0  0  0  0  0  0  0  0  0
    3.6042   -2.0250    0.0000 C   0  0  0  0  0  0  0  0  0  0  0  0
    7.1875   -3.2417    0.0000 C   0  0  0  0  0  0  0  0  0  0  0  0
    2.8792   -1.6042    0.0000 C   0  0  0  0  0  0  0  0  0  0  0  0
    7.1875   -4.0792    0.0000 N   0  0  0  0  0  0  0  0  0  0  0  0
    6.4625   -2.8375    0.0000 N   0  0  0  0  0  0  0  0  0  0  0  0
    5.7500   -4.0792    0.0000 C   0  0  0  0  0  0  0  0  0  0  0  0
    3.4917   -4.0792    0.0000 O   0  0  0  0  0  0  0  0  0  0  0  0
    4.3167   -4.9250    0.0000 O   0  0  0  0  0  0  0  0  0  0  0  0
    2.8792   -0.7792    0.0000 N   0  0  0  0  0  0  0  0  0  0  0  0
    5.7417   -3.2542    0.0000 C   0  0  0  0  0  0  0  0  0  0  0  0
    6.4792   -4.5000    0.0000 C   0  0  0  0  0  0  0  0  0  0  0  0
    7.8917   -2.8292    0.0000 Br  0  0  0  0  0  0  0  0  0  0  0  0
    5.0417   -2.8500    0.0000 C   0  0  0  0  0  0  0  0  0  0  0  0
    2.8792   -3.2667    0.0000 C   0  0  0  0  0  0  0  0  0  0  0  0
    4.3167   -1.6042    0.0000 C   0  0  0  0  0  0  0  0  0  0  0  0
    2.1667   -2.0250    0.0000 C   0  0  0  0  0  0  0  0  0  0  0  0
    5.0417   -2.0167    0.0000 C   0  0  0  0  0  0  0  0  0  0  0  0
    2.1667   -2.8542    0.0000 C   0  0  0  0  0  0  0  0  0  0  0  0
    2.1625   -0.3625    0.0000 C   0  0  0  0  0  0  0  0  0  0  0  0
    3.6042   -0.3542    0.0000 C   0  0  0  0  0  0  0  0  0  0  0  0
  2  1  1  0
  3  1  1  0
  4  2  1  0
  5  4  2  0
  6  8  1  0
  7  5  1  0
  8 15  2  0
  9 14  1  0
 10  3  1  0
 11  1  2  0
 12  1  2  0
 13  7  1  0
 14 10  2  0
 15 10  1  0
 16  6  1  0
 17  2  2  0
 18  4  1  0
 19 21  2  0
 20 22  1  0
 21 17  1  0
 22 18  2  0
 23 13  1  0
 24 13  1  0
  6  9  2  0
 19  5  1  0
 20  7  2  0
M  END

> <chembl_id>
CHEMBL7019

> <chembl_pref_name>
None

$$$$

     RDKit          2D

 24 26  0  0  0  0  0  0  0  0999 V2000
    4.3542   -4.0917    0.0000 S   0  0  0  0  0  0  0  0  0  0  0  0
    4.3542   -3.2667    0.0000 C   0  0  0  0  0  0  0  0  0  0  0  0
    5.0667   -4.5042    0.0000 N   0  0  0  0  0  0  0  0  0  0  0  0
    3.6375   -2.8542    0.0000 C   0  0  0  0  0  0  0  0  0  0  0  0
    3.6375   -2.0250    0.0000 C   0  0  0  0  0  0  0  0  0  0  0  0
    2.9125   -1.6042    0.0000 C   0  0  0  0  0  0  0  0  0  0  0  0
    3.5292   -4.0792    0.0000 O   0  0  0  0  0  0  0  0  0  0  0  0
    4.3417   -4.9250    0.0000 O   0  0  0  0  0  0  0  0  0  0  0  0
    7.2167   -4.0792    0.0000 N   0  0  0  0  0  0  0  0  0  0  0  0
    7.2167   -3.2417    0.0000 C   0  0  0  0  0  0  0  0  0  0  0  0
    2.9125   -0.7792    0.0000 N   0  0  0  0  0  0  0  0  0  0  0  0
    5.7792   -4.0792    0.0000 C   0  0  0  0  0  0  0  0  0  0  0  0
    6.5125   -4.5000    0.0000 C   0  0  0  0  0  0  0  0  0  0  0  0
    7.9292   -2.8292    0.0000 Cl  0  0  0  0  0  0  0  0  0  0  0  0
    6.4917   -2.8375    0.0000 C   0  0  0  0  0  0  0  0  0  0  0  0
    5.7792   -3.2542    0.0000 C   0  0  0  0  0  0  0  0  0  0  0  0
    5.0750   -2.8500    0.0000 C   0  0  0  0  0  0  0  0  0  0  0  0
    2.9125   -3.2667    0.0000 C   0  0  0  0  0  0  0  0  0  0  0  0
    4.3417   -1.6042    0.0000 C   0  0  0  0  0  0  0  0  0  0  0  0
    2.1917   -2.0250    0.0000 C   0  0  0  0  0  0  0  0  0  0  0  0
    5.0750   -2.0042    0.0000 C   0  0  0  0  0  0  0  0  0  0  0  0
    2.1917   -2.8542    0.0000 C   0  0  0  0  0  0  0  0  0  0  0  0
    2.1792   -0.3625    0.0000 C   0  0  0  0  0  0  0  0  0  0  0  0
    3.6375   -0.3542    0.0000 C   0  0  0  0  0  0  0  0  0  0  0  0
  2  1  1  0
  3  1  1  0
  4  2  1  0
  5  4  2  0
  6  5  1  0
  7  1  2  0
  8  1  2  0
  9 13  2  0
 10 15  2  0
 11  6  1  0
 12  3  1  0
 13 12  1  0
 14 10  1  0
 15 16  1  0
 16 12  2  0
 17  2  2  0
 18  4  1  0
 19 21  2  0
 20 22  1  0
 21 17  1  0
 22 18  2  0
 23 11  1  0
 24 11  1  0
 19  5  1  0
 10  9  1  0
 20  6  2  0
M  END

> <chembl_id>
CHEMBL415292

> <chembl_pref_name>
None

$$$$

     RDKit          2D

 15 17  0  0  0  0  0  0  0  0999 V2000
    5.1417   -2.2500    0.0000 C   0  0  0  0  0  0  0  0  0  0  0  0
    3.7042   -2.2417    0.0000 C   0  0  0  0  0  0  0  0  0  0  0  0
    5.1417   -3.0750    0.0000 C   0  0  0  0  0  0  0  0  0  0  0  0
    4.4167   -3.4875    0.0000 N   0  0  0  0  0  0  0  0  0  0  0  0
    3.7042   -3.0667    0.0000 C   0  0  0  0  0  0  0  0  0  0  0  0
    5.9667   -2.2500    0.0000 O   0  0  0  0  0  0  0  0  0  0  0  0
    4.8917   -1.4625    0.0000 O   0  0  0  0  0  0  0  0  0  0  0  0
    2.9917   -1.8292    0.0000 C   0  0  0  0  0  0  0  0  0  0  0  0
    5.8542   -3.4875    0.0000 O   0  0  0  0  0  0  0  0  0  0  0  0
    2.9917   -3.4875    0.0000 C   0  0  0  0  0  0  0  0  0  0  0  0
    2.2792   -2.2500    0.0000 C   0  0  0  0  0  0  0  0  0  0  0  0
    2.2792   -3.0750    0.0000 C   0  0  0  0  0  0  0  0  0  0  0  0
    1.5667   -1.8375    0.0000 Br  0  0  0  0  0  0  0  0  0  0  0  0
    5.5542   -0.9792    0.0000 C   0  0  0  0  0  0  0  0  0  0  0  0
    6.2250   -1.4625    0.0000 C   0  0  0  0  0  0  0  0  0  0  0  0
  2  1  1  0
  3  1  1  0
  4  3  1  0
  5  2  1  0
  6  1  1  0
  7  1  1  0
  8  2  2  0
  9  3  2  0
 10  5  2  0
 11  8  1  0
 12 11  2  0
 13 11  1  0
 14  7  1  0
 15  6  1  0
 14 15  1  0
  4  5  1  0
 12 10  1  0
M  END

> <chembl_id>
CHEMBL6720

> <chembl_pref_name>
None

$$$$

     RDKit          2D

 29 31  0  0  0  0  0  0  0  0999 V2000
    2.8042   -1.7500    0.0000 C   0  0  0  0  0  0  0  0  0  0  0  0
    2.3167   -2.1000    0.0000 N   0  0  0  0  0  0  0  0  0  0  0  0
    3.2917   -2.1000    0.0000 O   0  0  0  0  0  0  0  0  0  0  0  0
   -0.3708   -1.7750    0.0000 C   0  0  0  0  0  0  0  0  0  0  0  0
    0.0417   -1.3500    0.0000 C   0  0  0  0  0  0  0  0  0  0  0  0
   -0.9708   -1.7125    0.0000 C   0  0  0  0  0  0  0  0  0  0  0  0
   -1.2958   -1.2000    0.0000 C   0  0  0  0  0  0  0  0  0  0  0  0
    1.7542   -1.9167    0.0000 C   0  0  0  0  0  0  0  0  0  0  0  0
    3.1042   -2.6750    0.0000 C   0  0  0  0  0  0  0  0  0  0  0  0
    2.5042   -2.6750    0.0000 C   0  0  0  0  0  0  0  0  0  0  0  0
   -2.8458   -0.8625    0.0000 C   0  0  0  0  0  0  0  0  0  0  0  0
   -3.4410   -0.9327    0.0000 C   0  0  0  0  0  0  0  0  0  0  0  0
    2.8042   -1.1500    0.0000 O   0  0  0  0  0  0  0  0  0  0  0  0
    0.6042   -1.5500    0.0000 C   0  0  0  0  0  0  0  0  0  0  0  0
    3.5667   -4.1917    0.0000 C   0  0  0  0  0  0  0  0  0  0  0  0
   -0.0333   -0.7542    0.0000 C   0  0  0  0  0  0  0  0  0  0  0  0
   -0.5333   -0.4417    0.0000 C   0  0  0  0  0  0  0  0  0  0  0  0
   -1.0958   -0.6417    0.0000 C   0  0  0  0  0  0  0  0  0  0  0  0
    3.2167   -3.7125    0.0000 N   0  0  0  0  0  0  0  0  0  0  0  0
   -1.2833   -2.2292    0.0000 O   0  0  0  0  0  0  0  0  0  0  0  0
    3.3167   -4.7417    0.0000 O   0  0  0  0  0  0  0  0  0  0  0  0
    1.3042   -2.3167    0.0000 C   0  0  0  0  0  0  0  0  0  0  0  0
    1.6292   -1.3292    0.0000 C   0  0  0  0  0  0  0  0  0  0  0  0
    1.0542   -1.1417    0.0000 C   0  0  0  0  0  0  0  0  0  0  0  0
    0.7292   -2.1375    0.0000 C   0  0  0  0  0  0  0  0  0  0  0  0
   -1.8833   -1.2750    0.0000 N   0  0  0  0  0  0  0  0  0  0  0  0
    3.4542   -3.1625    0.0000 C   0  0  0  0  0  0  0  0  0  0  0  0
   -2.2458   -0.7917    0.0000 C   0  0  0  0  0  0  0  0  0  0  0  0
    4.1542   -4.1292    0.0000 C   0  0  0  0  0  0  0  0  0  0  0  0
  2  1  1  0
  3  1  1  0
  4  5  2  0
  5 14  1  0
  6  4  1  0
  7  6  1  0
  8  2  1  0
  9  3  1  0
 10  2  1  0
 11 28  1  0
 12 11  3  0
 13  1  2  0
 14 24  2  0
 15 19  1  0
 16  5  1  0
 17 16  2  0
 18 17  1  0
 19 27  1  0
 20  6  2  0
 21 15  2  0
 22  8  1  0
 23  8  2  0
 24 23  1  0
 25 22  2  0
 26  7  1  0
 27  9  1  0
 28 26  1  0
 29 15  1  0
 10  9  1  0
 25 14  1  0
 18  7  2  0
M  END

> <chembl_id>
CHEMBL6792

> <chembl_pref_name>
None

$$$$

     RDKit          2D

 20 21  0  0  0  0  0  0  0  0999 V2000
    5.4500   -3.5917    0.0000 C   0  0  0  0  0  0  0  0  0  0  0  0
    4.7417   -8.1250    0.0000 C   0  0  0  0  0  0  0  0  0  0  0  0
    4.0292   -3.5917    0.0000 N   0  0  0  0  0  0  0  0  0  0  0  0
    4.0292   -4.4167    0.0000 N   0  0  0  0  0  0  0  0  0  0  0  0
    5.4500   -4.4167    0.0000 C   0  0  0  0  0  0  0  0  0  0  0  0
    4.7375   -3.1750    0.0000 C   0  0  0  0  0  0  0  0  0  0  0  0
    6.1667   -3.1792    0.0000 C   0  0  0  0  0  0  0  0  0  0  0  0
    4.7375   -4.8250    0.0000 C   0  0  0  0  0  0  0  0  0  0  0  0
    4.7375   -7.2917    0.0000 C   0  0  0  0  0  0  0  0  0  0  0  0
    4.7375   -5.6500    0.0000 C   0  0  0  0  0  0  0  0  0  0  0  0
    6.1667   -2.3542    0.0000 O   0  0  0  0  0  0  0  0  0  0  0  0
    4.0167   -6.8792    0.0000 C   0  0  0  0  0  0  0  0  0  0  0  0
    5.4542   -6.8792    0.0000 C   0  0  0  0  0  0  0  0  0  0  0  0
    4.7417   -8.8750    0.0000 F   0  0  0  0  0  0  0  0  0  0  0  0
    4.0750   -8.6667    0.0000 F   0  0  0  0  0  0  0  0  0  0  0  0
    5.4125   -8.6667    0.0000 F   0  0  0  0  0  0  0  0  0  0  0  0
    5.4500   -6.0542    0.0000 C   0  0  0  0  0  0  0  0  0  0  0  0
    4.0167   -6.0542    0.0000 C   0  0  0  0  0  0  0  0  0  0  0  0
    6.8792   -3.5917    0.0000 N   0  0  0  0  0  0  0  0  0  0  0  0
    4.7375   -2.3500    0.0000 Cl  0  0  0  0  0  0  0  0  0  0  0  0
  2  9  1  0
  3  6  2  0
  4  3  1  0
  5  1  2  0
  6  1  1  0
  7  1  1  0
  8  5  1  0
  9 12  2  0
 10  8  1  0
 11  7  2  0
 12 18  1  0
 13 17  2  0
 14  2  1  0
 15  2  1  0
 16  2  1  0
 17 10  1  0
 18 10  2  0
 19  7  1  0
 20  6  1  0
  4  8  2  0
  9 13  1  0
M  END

> <chembl_id>
CHEMBL6791

> <chembl_pref_name>
None

$$$$

     RDKit          2D

 17 19  0  0  0  0  0  0  0  0999 V2000
    5.6549   -5.7016    0.0000 C   0  0  0  0  0  0  0  0  0  0  0  0
    4.9427   -6.1180    0.0000 N   0  0  0  0  0  0  0  0  0  0  0  0
    5.6510   -4.8726    0.0000 C   0  0  0  0  0  0  0  0  0  0  0  0
    4.9310   -4.4640    0.0000 N   0  0  0  0  0  0  0  0  0  0  0  0
    6.3671   -6.1102    0.0000 N   0  0  0  0  0  0  0  0  0  0  0  0
    4.2265   -5.7016    0.0000 C   0  0  0  0  0  0  0  0  0  0  0  0
    4.2265   -4.8804    0.0000 C   0  0  0  0  0  0  0  0  0  0  0  0
    7.7915   -6.9275    0.0000 N   0  0  0  0  0  0  0  0  0  0  0  0
    6.3632   -4.4523    0.0000 Cl  0  0  0  0  0  0  0  0  0  0  0  0
    7.0793   -5.6899    0.0000 C   0  0  0  0  0  0  0  0  0  0  0  0
    6.3671   -6.9353    0.0000 C   0  0  0  0  0  0  0  0  0  0  0  0
    7.0793   -7.3439    0.0000 C   0  0  0  0  0  0  0  0  0  0  0  0
    7.7915   -6.1063    0.0000 C   0  0  0  0  0  0  0  0  0  0  0  0
    3.5066   -6.1219    0.0000 C   0  0  0  0  0  0  0  0  0  0  0  0
    3.5066   -4.4640    0.0000 C   0  0  0  0  0  0  0  0  0  0  0  0
    2.7944   -5.7093    0.0000 C   0  0  0  0  0  0  0  0  0  0  0  0
    2.7944   -4.8804    0.0000 C   0  0  0  0  0  0  0  0  0  0  0  0
  2  1  2  0
  3  1  1  0
  4  3  2  0
  5  1  1  0
  6  2  1  0
  7  4  1  0
  8 12  1  0
  9  3  1  0
 10  5  1  0
 11  5  1  0
 12 11  1  0
 13 10  1  0
 14  6  2  0
 15  7  2  0
 16 14  1  0
 17 15  1  0
 13  8  1  0
  6  7  1  0
 16 17  2  0
M  END

> <chembl_id>
CHEMBL7022

> <chembl_pref_name>
None

$$$$

     RDKit          2D

  9  9  0  0  0  0  0  0  0  0999 V2000
    6.0750   -2.5667    0.0000 C   0  0  0  0  0  0  0  0  0  0  0  0
    5.3625   -2.9792    0.0000 N   0  0  0  0  0  0  0  0  0  0  0  0
    6.7917   -2.9792    0.0000 N   0  0  0  0  0  0  0  0  0  0  0  0
    6.0750   -1.7417    0.0000 C   0  0  0  0  0  0  0  0  0  0  0  0
    4.6542   -2.5667    0.0000 C   0  0  0  0  0  0  0  0  0  0  0  0
    5.3625   -1.3292    0.0000 C   0  0  0  0  0  0  0  0  0  0  0  0
    4.6542   -1.7417    0.0000 C   0  0  0  0  0  0  0  0  0  0  0  0
    5.3625   -0.5042    0.0000 C   0  0  0  0  0  0  0  0  0  0  0  0
    6.0792   -0.0917    0.0000 C   0  0  0  0  0  0  0  0  0  0  0  0
  2  1  2  0
  3  1  1  0
  4  1  1  0
  5  2  1  0
  6  4  1  0
  7  6  1  0
  8  6  1  0
  9  8  1  0
  5  7  1  0
M  END

> <chembl_id>
CHEMBL6813

> <chembl_pref_name>
None

$$$$

     RDKit          2D

 27 27  0  0  1  0  0  0  0  0999 V2000
    0.0792   -2.0667    0.0000 C   0  0  0  0  0  0  0  0  0  0  0  0
    0.6792   -2.8375    0.0000 C   0  0  0  0  0  0  0  0  0  0  0  0
   -0.2583   -2.5667    0.0000 C   0  0  0  0  0  0  0  0  0  0  0  0
    0.6542   -2.2292    0.0000 C   0  0  0  0  0  0  0  0  0  0  0  0
    0.1167   -3.0417    0.0000 C   0  0  0  0  0  0  0  0  0  0  0  0
    1.1750   -3.1750    0.0000 C   0  0  0  0  0  0  0  0  0  0  0  0
    4.3292   -2.1167    0.0000 C   0  0  0  0  0  0  0  0  0  0  0  0
   -0.1250   -1.5042    0.0000 O   0  0  0  0  0  0  0  0  0  0  0  0
    1.7167   -2.9042    0.0000 C   0  0  0  0  0  0  0  0  0  0  0  0
    4.3375   -2.7167    0.0000 O   0  0  0  0  0  0  0  0  0  0  0  0
    2.1542   -1.7167    0.0000 C   0  0  0  0  0  0  0  0  0  0  0  0
    2.7500   -1.7250    0.0000 C   0  0  0  0  0  0  0  0  0  0  0  0
    2.7542   -2.9792    0.0000 C   0  0  0  0  0  0  0  0  0  0  0  0
   -0.0458   -3.6167    0.0000 O   0  0  0  0  0  0  0  0  0  0  0  0
    4.8417   -1.8125    0.0000 O   0  0  0  0  0  0  0  0  0  0  0  0
    2.8000   -3.5792    0.0000 O   0  0  0  0  0  0  0  0  0  0  0  0
    2.2125   -3.2500    0.0000 C   0  0  0  0  0  0  0  0  0  0  0  0
    1.1292   -1.8792    0.0000 C   0  0  0  0  0  0  0  0  0  0  0  0
    3.8125   -1.8167    0.0000 C   0  0  0  0  0  0  0  0  0  0  0  0
    1.6875   -2.0917    0.0000 C   0  0  0  0  0  0  0  0  0  0  0  0
    3.2875   -2.1167    0.0000 C   0  0  0  0  0  0  0  0  0  0  0  0
    3.2500   -3.3125    0.0000 C   0  0  0  0  0  0  0  0  0  0  0  0
    2.8542   -2.3917    0.0000 C   0  0  0  0  0  0  0  0  0  0  0  0
    5.4292   -1.9292    0.0000 C   0  0  0  0  0  0  0  0  0  0  0  0
    3.7917   -3.0417    0.0000 C   0  0  0  0  0  0  0  0  0  0  0  0
    4.2875   -3.3917    0.0000 C   0  0  0  0  0  0  0  0  0  0  0  0
    4.8292   -3.1167    0.0000 C   0  0  0  0  0  0  0  0  0  0  0  0
  2  4  1  0
  3  1  1  0
  4  1  1  0
  5  3  1  0
  2  6  1  1
  7 19  1  0
  8  1  2  0
  9  6  2  0
 10  7  2  0
 11 20  1  0
 12 11  2  0
 13 17  1  0
  5 14  1  6
 15  7  1  0
 13 16  1  0
 17  9  1  0
  4 18  1  6
 19 21  1  0
 20 18  1  0
 21 12  1  0
 22 13  1  0
 23 13  1  0
 24 15  1  0
 25 22  1  0
 26 25  1  0
 27 26  1  0
  5  2  1  0
M  END

> <chembl_id>
CHEMBL266979

> <chembl_pref_name>
ENISOPROST

$$$$

     RDKit          2D

 14 15  0  0  0  0  0  0  0  0999 V2000
    4.8917   -2.0292    0.0000 C   0  0  0  0  0  0  0  0  0  0  0  0
    4.8917   -2.8542    0.0000 C   0  0  0  0  0  0  0  0  0  0  0  0
    3.4542   -2.0250    0.0000 C   0  0  0  0  0  0  0  0  0  0  0  0
    4.1667   -3.2667    0.0000 N   0  0  0  0  0  0  0  0  0  0  0  0
    3.4542   -2.8500    0.0000 C   0  0  0  0  0  0  0  0  0  0  0  0
    5.6042   -3.2667    0.0000 O   0  0  0  0  0  0  0  0  0  0  0  0
    4.6417   -1.2417    0.0000 O   0  0  0  0  0  0  0  0  0  0  0  0
    5.7167   -2.0292    0.0000 O   0  0  0  0  0  0  0  0  0  0  0  0
    2.7417   -1.6125    0.0000 C   0  0  0  0  0  0  0  0  0  0  0  0
    2.7417   -3.2667    0.0000 C   0  0  0  0  0  0  0  0  0  0  0  0
    5.9750   -1.2417    0.0000 C   0  0  0  0  0  0  0  0  0  0  0  0
    5.3042   -0.7542    0.0000 C   0  0  0  0  0  0  0  0  0  0  0  0
    2.0292   -2.0250    0.0000 C   0  0  0  0  0  0  0  0  0  0  0  0
    2.0292   -2.8542    0.0000 C   0  0  0  0  0  0  0  0  0  0  0  0
  2  1  1  0
  3  1  1  0
  4  2  1  0
  5  3  1  0
  6  2  2  0
  7  1  1  0
  8  1  1  0
  9  3  2  0
 10  5  2  0
 11  8  1  0
 12  7  1  0
 13  9  1  0
 14 13  2  0
  4  5  1  0
 14 10  1  0
M  END

> <chembl_id>
CHEMBL268311

> <chembl_pref_name>
None

$$$$

     RDKit          2D

 16 18  0  0  0  0  0  0  0  0999 V2000
    4.8917   -2.0292    0.0000 C   0  0  0  0  0  0  0  0  0  0  0  0
    4.8917   -2.8542    0.0000 C   0  0  0  0  0  0  0  0  0  0  0  0
    3.4542   -2.0250    0.0000 C   0  0  0  0  0  0  0  0  0  0  0  0
    4.1667   -3.2667    0.0000 N   0  0  0  0  0  0  0  0  0  0  0  0
    4.6417   -1.2417    0.0000 O   0  0  0  0  0  0  0  0  0  0  0  0
    5.7167   -2.0292    0.0000 O   0  0  0  0  0  0  0  0  0  0  0  0
    3.4542   -2.8500    0.0000 C   0  0  0  0  0  0  0  0  0  0  0  0
    5.6042   -3.2667    0.0000 O   0  0  0  0  0  0  0  0  0  0  0  0
    5.9750   -1.2417    0.0000 C   0  0  0  0  0  0  0  0  0  0  0  0
    5.3042   -0.7542    0.0000 C   0  0  0  0  0  0  0  0  0  0  0  0
    2.7417   -1.6125    0.0000 C   0  0  0  0  0  0  0  0  0  0  0  0
    7.3667   -1.5417    0.0000 Cl  0  0  0  0  0  0  0  0  0  0  0  0
    2.7417   -3.2667    0.0000 C   0  0  0  0  0  0  0  0  0  0  0  0
    6.7625   -0.9875    0.0000 C   0  0  0  0  0  0  0  0  0  0  0  0
    2.0292   -2.0250    0.0000 C   0  0  0  0  0  0  0  0  0  0  0  0
    2.0292   -2.8542    0.0000 C   0  0  0  0  0  0  0  0  0  0  0  0
  2  1  1  0
  3  1  1  0
  4  2  1  0
  5  1  1  0
  6  1  1  0
  7  3  1  0
  8  2  2  0
  9  6  1  0
 10  5  1  0
 11  3  2  0
 12 14  1  0
 13  7  2  0
 14  9  1  0
 15 11  1  0
 16 15  2  0
 10  9  1  0
  4  7  1  0
 16 13  1  0
M  END

> <chembl_id>
CHEMBL266544

> <chembl_pref_name>
None

$$$$

     RDKit          2D

 28 29  0  0  0  0  0  0  0  0999 V2000
    0.1792   -3.6167    0.0000 N   0  0  0  0  0  0  0  0  0  0  0  0
    4.5417   -3.7042    0.0000 S   0  0  0  0  0  0  0  0  0  0  0  0
    0.0542   -4.5167    0.0000 C   0  0  0  0  0  0  0  0  0  0  0  0
   -0.7250   -4.7792    0.0000 C   0  0  0  0  0  0  0  0  0  0  0  0
    0.9667   -3.3542    0.0000 C   0  0  0  0  0  0  0  0  0  0  0  0
    1.6875   -3.7542    0.0000 C   0  0  0  0  0  0  0  0  0  0  0  0
    3.8250   -3.3042    0.0000 C   0  0  0  0  0  0  0  0  0  0  0  0
    4.5417   -4.5292    0.0000 O   0  0  0  0  0  0  0  0  0  0  0  0
    4.5417   -2.8792    0.0000 O   0  0  0  0  0  0  0  0  0  0  0  0
    5.2500   -3.2875    0.0000 C   0  0  0  0  0  0  0  0  0  0  0  0
    0.6750   -5.0542    0.0000 O   0  0  0  0  0  0  0  0  0  0  0  0
   -0.8875   -5.5917    0.0000 C   0  0  0  0  0  0  0  0  0  0  0  0
   -1.3458   -4.2417    0.0000 O   0  0  0  0  0  0  0  0  0  0  0  0
    1.7000   -4.5792    0.0000 O   0  0  0  0  0  0  0  0  0  0  0  0
   -0.4375   -3.0792    0.0000 C   0  0  0  0  0  0  0  0  0  0  0  0
    2.3917   -3.3292    0.0000 O   0  0  0  0  0  0  0  0  0  0  0  0
    3.1167   -3.7292    0.0000 C   0  0  0  0  0  0  0  0  0  0  0  0
    1.1250   -2.5542    0.0000 C   0  0  0  0  0  0  0  0  0  0  0  0
   -1.6708   -5.8542    0.0000 C   0  0  0  0  0  0  0  0  0  0  0  0
    5.2292   -2.4625    0.0000 C   0  0  0  0  0  0  0  0  0  0  0  0
    5.9667   -3.6875    0.0000 C   0  0  0  0  0  0  0  0  0  0  0  0
   -0.2750   -2.2667    0.0000 C   0  0  0  0  0  0  0  0  0  0  0  0
   -2.2875   -5.3167    0.0000 C   0  0  0  0  0  0  0  0  0  0  0  0
   -1.8250   -6.6667    0.0000 C   0  0  0  0  0  0  0  0  0  0  0  0
    0.5042   -2.0042    0.0000 C   0  0  0  0  0  0  0  0  0  0  0  0
    6.6750   -3.2625    0.0000 C   0  0  0  0  0  0  0  0  0  0  0  0
    5.9375   -2.0375    0.0000 C   0  0  0  0  0  0  0  0  0  0  0  0
    6.6625   -2.4375    0.0000 C   0  0  0  0  0  0  0  0  0  0  0  0
  2  7  1  0
  3  1  1  0
  4  3  1  0
  5  1  1  0
  6  5  1  0
  7 17  1  0
  8  2  2  0
  9  2  2  0
 10  2  1  0
 11  3  2  0
 12  4  1  0
 13  4  2  0
 14  6  2  0
 15  1  1  0
 16  6  1  0
 17 16  1  0
 18  5  1  0
 19 12  1  0
 20 10  1  0
 21 10  2  0
 22 15  1  0
 23 19  1  0
 24 19  1  0
 25 22  1  0
 26 21  1  0
 27 20  2  0
 28 26  2  0
 18 25  1  0
 27 28  1  0
M  END

> <chembl_id>
CHEMBL7131

> <chembl_pref_name>
None

$$$$

     RDKit          2D

 26 27  0  0  0  0  0  0  0  0999 V2000
    0.7125   -5.4708    0.0000 Br  0  0  0  0  0  0  0  0  0  0  0  0
    4.8167   -8.0833    0.0000 C   0  0  0  0  0  0  0  0  0  0  0  0
    4.8167   -7.3750    0.0000 C   0  0  0  0  0  0  0  0  0  0  0  0
    5.4250   -8.4375    0.0000 C   0  0  0  0  0  0  0  0  0  0  0  0
    6.0417   -8.0833    0.0000 C   0  0  0  0  0  0  0  0  0  0  0  0
    6.0417   -7.3625    0.0000 C   0  0  0  0  0  0  0  0  0  0  0  0
    5.4250   -7.0083    0.0000 C   0  0  0  0  0  0  0  0  0  0  0  0
    4.2000   -8.4375    0.0000 O   0  0  0  0  0  0  0  0  0  0  0  0
    4.2000   -7.0208    0.0000 C   0  0  0  0  0  0  0  0  0  0  0  0
    3.5917   -8.0833    0.0000 C   0  0  0  0  0  0  0  0  0  0  0  0
    3.5833   -7.3792    0.0000 C   0  0  0  0  0  0  0  0  0  0  0  0
    6.7208   -8.3042    0.0000 O   0  0  0  0  0  0  0  0  0  0  0  0
    6.7208   -7.1417    0.0000 C   0  0  0  0  0  0  0  0  0  0  0  0
    7.1375   -7.7167    0.0000 C   0  0  0  0  0  0  0  0  0  0  0  0
    2.3500   -5.9708    0.0000 N   0  0  0  0  0  0  0  0  0  0  0  0
    2.9750   -8.4375    0.0000 O   0  0  0  0  0  0  0  0  0  0  0  0
    5.4250   -9.1458    0.0000 O   0  0  0  0  0  0  0  0  0  0  0  0
    5.4208   -6.3000    0.0000 C   0  0  0  0  0  0  0  0  0  0  0  0
    2.9625   -6.3167    0.0000 C   0  0  0  0  0  0  0  0  0  0  0  0
    3.5833   -5.9625    0.0000 C   0  0  0  0  0  0  0  0  0  0  0  0
    4.8083   -5.9583    0.0000 O   0  0  0  0  0  0  0  0  0  0  0  0
    1.7375   -6.3250    0.0000 C   0  0  0  0  0  0  0  0  0  0  0  0
    2.3417   -6.6792    0.0000 C   0  0  0  0  0  0  0  0  0  0  0  0
    2.3500   -5.2625    0.0000 C   0  0  0  0  0  0  0  0  0  0  0  0
    4.1958   -6.3167    0.0000 C   0  0  0  0  0  0  0  0  0  0  0  0
    4.8167   -9.5000    0.0000 C   0  0  0  0  0  0  0  0  0  0  0  0
  3  2  2  0
  4  2  1  0
  5  4  2  0
  6  5  1  0
  7  3  1  0
  8  2  1  0
  9  3  1  0
 10  8  1  0
 11 10  1  0
 12  5  1  0
 13  6  1  0
 14 12  1  0
 15 19  1  0
 16 10  2  0
 17  4  1  0
 18  7  1  0
 19 20  1  0
 20 25  1  0
 21 18  1  0
 22 15  1  0
 23 15  1  0
 24 15  1  0
 25 21  1  0
 26 17  1  0
  6  7  2  0
 11  9  2  0
 13 14  2  0
M  CHG  2   1  -1  15   1
M  END

> <chembl_id>
CHEMBL6945

> <chembl_pref_name>
None

$$$$

     RDKit          2D

 21 22  0  0  0  0  0  0  0  0999 V2000
   14.8987    3.3075    0.0000 C   0  0  0  0  0  0  0  0  0  0  0  0
   14.8976    2.4803    0.0000 C   0  0  0  0  0  0  0  0  0  0  0  0
   15.6122    2.0675    0.0000 C   0  0  0  0  0  0  0  0  0  0  0  0
   16.3285    2.4808    0.0000 C   0  0  0  0  0  0  0  0  0  0  0  0
   16.3257    3.3111    0.0000 C   0  0  0  0  0  0  0  0  0  0  0  0
   15.6104    3.7201    0.0000 C   0  0  0  0  0  0  0  0  0  0  0  0
   14.1830    2.0685    0.0000 N   0  0  0  0  0  0  0  0  0  0  0  0
   13.4690    2.4814    0.0000 S   0  0  0  0  0  0  0  0  0  0  0  0
   12.7544    2.0696    0.0000 C   0  0  0  0  0  0  0  0  0  0  0  0
   13.8755    3.1991    0.0000 O   0  0  0  0  0  0  0  0  0  0  0  0
   12.8799    3.0700    0.0000 O   0  0  0  0  0  0  0  0  0  0  0  0
   12.0413    2.4848    0.0000 C   0  0  0  0  0  0  0  0  0  0  0  0
   11.3272    2.0736    0.0000 C   0  0  0  0  0  0  0  0  0  0  0  0
   11.3261    1.2480    0.0000 C   0  0  0  0  0  0  0  0  0  0  0  0
   12.0450    0.8352    0.0000 C   0  0  0  0  0  0  0  0  0  0  0  0
   12.7562    1.2488    0.0000 C   0  0  0  0  0  0  0  0  0  0  0  0
   10.6120    0.8353    0.0000 N   0  0  0  0  0  0  0  0  0  0  0  0
   15.6120    1.2428    0.0000 S   0  0  0  0  0  0  0  0  0  0  0  0
   14.8976    0.8306    0.0000 N   0  0  0  0  0  0  0  0  0  0  0  0
   16.3207    1.6621    0.0000 O   0  0  0  0  0  0  0  0  0  0  0  0
   16.0165    0.5332    0.0000 O   0  0  0  0  0  0  0  0  0  0  0  0
  2  3  1  0
  8 11  2  0
  5  6  2  0
  9 12  2  0
  6  1  1  0
 12 13  1  0
  1  2  2  0
 13 14  2  0
  2  7  1  0
 14 15  1  0
  3  4  2  0
 15 16  2  0
 16  9  1  0
  7  8  1  0
 14 17  1  0
  3 18  1  0
  8  9  1  0
 18 19  1  0
  4  5  1  0
 18 20  2  0
  8 10  2  0
 18 21  2  0
M  END

> <chembl_id>
CHEMBL6946

> <chembl_pref_name>
None

$$$$

     RDKit          2D

 17 19  0  0  0  0  0  0  0  0999 V2000
    6.5875   -7.2750    0.0000 N   0  0  0  0  0  0  0  0  0  0  0  0
    7.3500   -6.8292    0.0000 C   0  0  0  0  0  0  0  0  0  0  0  0
    8.1167   -7.2667    0.0000 N   0  0  0  0  0  0  0  0  0  0  0  0
    6.5792   -5.5042    0.0000 N   0  0  0  0  0  0  0  0  0  0  0  0
    5.8167   -5.9500    0.0000 C   0  0  0  0  0  0  0  0  0  0  0  0
    5.8167   -6.8292    0.0000 C   0  0  0  0  0  0  0  0  0  0  0  0
    5.0542   -5.5042    0.0000 C   0  0  0  0  0  0  0  0  0  0  0  0
    7.3417   -5.9417    0.0000 C   0  0  0  0  0  0  0  0  0  0  0  0
    9.6417   -8.1417    0.0000 N   0  0  0  0  0  0  0  0  0  0  0  0
    5.0542   -7.2792    0.0000 C   0  0  0  0  0  0  0  0  0  0  0  0
    4.2917   -5.9500    0.0000 C   0  0  0  0  0  0  0  0  0  0  0  0
    4.2917   -6.8375    0.0000 C   0  0  0  0  0  0  0  0  0  0  0  0
    3.5250   -5.5042    0.0000 F   0  0  0  0  0  0  0  0  0  0  0  0
    8.8750   -6.8167    0.0000 C   0  0  0  0  0  0  0  0  0  0  0  0
    8.1167   -8.1500    0.0000 C   0  0  0  0  0  0  0  0  0  0  0  0
    8.8792   -8.5875    0.0000 C   0  0  0  0  0  0  0  0  0  0  0  0
    9.6417   -7.2625    0.0000 C   0  0  0  0  0  0  0  0  0  0  0  0
  2  1  2  0
  3  2  1  0
  4  5  1  0
  5  6  1  0
  6  1  1  0
  7  5  2  0
  8  2  1  0
  9 16  1  0
 10  6  2  0
 11 12  2  0
 12 10  1  0
 13 11  1  0
 14  3  1  0
 15  3  1  0
 16 15  1  0
 17 14  1  0
  4  8  2  0
 11  7  1  0
 17  9  1  0
M  END

> <chembl_id>
CHEMBL7020

> <chembl_pref_name>
None

$$$$

     RDKit          2D

 18 20  0  0  0  0  0  0  0  0999 V2000
    3.9018   -5.9570    0.0000 N   0  0  0  0  0  0  0  0  0  0  0  0
    4.6140   -5.5406    0.0000 C   0  0  0  0  0  0  0  0  0  0  0  0
    3.8940   -4.3030    0.0000 N   0  0  0  0  0  0  0  0  0  0  0  0
    3.1818   -4.7194    0.0000 C   0  0  0  0  0  0  0  0  0  0  0  0
    5.3301   -5.9493    0.0000 N   0  0  0  0  0  0  0  0  0  0  0  0
    3.1818   -5.5406    0.0000 C   0  0  0  0  0  0  0  0  0  0  0  0
    4.6062   -4.7117    0.0000 C   0  0  0  0  0  0  0  0  0  0  0  0
    6.7545   -6.7665    0.0000 N   0  0  0  0  0  0  0  0  0  0  0  0
    2.4696   -4.3030    0.0000 C   0  0  0  0  0  0  0  0  0  0  0  0
    2.4657   -3.4818    0.0000 O   0  0  0  0  0  0  0  0  0  0  0  0
    6.0384   -5.5289    0.0000 C   0  0  0  0  0  0  0  0  0  0  0  0
    5.3301   -6.7743    0.0000 C   0  0  0  0  0  0  0  0  0  0  0  0
    2.4696   -5.9609    0.0000 C   0  0  0  0  0  0  0  0  0  0  0  0
    1.7574   -5.5484    0.0000 C   0  0  0  0  0  0  0  0  0  0  0  0
    6.0423   -7.1829    0.0000 C   0  0  0  0  0  0  0  0  0  0  0  0
    6.7545   -5.9453    0.0000 C   0  0  0  0  0  0  0  0  0  0  0  0
    1.7574   -4.7194    0.0000 C   0  0  0  0  0  0  0  0  0  0  0  0
    3.1701   -3.0615    0.0000 C   0  0  0  0  0  0  0  0  0  0  0  0
  2  1  2  0
  3  4  1  0
  4  6  1  0
  5  2  1  0
  6  1  1  0
  7  2  1  0
  8 15  1  0
  9  4  2  0
 10  9  1  0
 11  5  1  0
 12  5  1  0
 13  6  2  0
 14 13  1  0
 15 12  1  0
 16 11  1  0
 17 14  2  0
 18 10  1  0
  3  7  2  0
 17  9  1  0
 16  8  1  0
M  END

> <chembl_id>
CHEMBL441329

> <chembl_pref_name>
None

$$$$

     RDKit          2D

 71 72  0  0  1  0  0  0  0  0999 V2000
    8.9417   -4.5625    0.0000 N   0  0  0  0  0  0  0  0  0  0  0  0
    8.2292   -4.1417    0.0000 C   0  0  0  0  0  0  0  0  0  0  0  0
    9.8875   -3.4250    0.0000 C   0  0  0  0  0  0  0  0  0  0  0  0
   -1.0833   -4.4750    0.0000 C   0  0  0  0  0  0  0  0  0  0  0  0
   -0.3583   -4.0667    0.0000 C   0  0  0  0  0  0  0  0  0  0  0  0
    6.0792   -4.5375    0.0000 C   0  0  0  0  0  0  0  0  0  0  0  0
   -1.7875   -4.0542    0.0000 N   0  0  0  0  0  0  0  0  0  0  0  0
    6.8000   -4.1292    0.0000 N   0  0  0  0  0  0  0  0  0  0  0  0
    4.6500   -4.5250    0.0000 N   0  0  0  0  0  0  0  0  0  0  0  0
    7.5167   -4.5500    0.0000 C   0  0  0  0  0  0  0  0  0  0  0  0
    9.7042   -4.2292    0.0000 C   0  0  0  0  0  0  0  0  0  0  0  0
   -2.5083   -4.4542    0.0000 C   0  0  0  0  0  0  0  0  0  0  0  0
    3.9375   -4.1042    0.0000 C   0  0  0  0  0  0  0  0  0  0  0  0
   10.6667   -3.1792    0.0000 N   0  0  0  0  0  0  0  0  0  0  0  0
   11.6375   -2.1250    0.0000 C   0  0  0  0  0  0  0  0  0  0  0  0
   10.8500   -2.3750    0.0000 N   0  0  0  0  0  0  0  0  0  0  0  0
    1.7875   -4.5000    0.0000 C   0  0  0  0  0  0  0  0  0  0  0  0
    0.3542   -4.4792    0.0000 N   0  0  0  0  0  0  0  0  0  0  0  0
    2.5042   -4.0917    0.0000 N   0  0  0  0  0  0  0  0  0  0  0  0
    5.3667   -4.1167    0.0000 C   0  0  0  0  0  0  0  0  0  0  0  0
    3.2167   -4.5042    0.0000 C   0  0  0  0  0  0  0  0  0  0  0  0
   -3.2250   -4.0417    0.0000 C   0  0  0  0  0  0  0  0  0  0  0  0
    3.2125   -5.3375    0.0000 C   0  0  0  0  0  0  0  0  0  0  0  0
   -3.2208   -3.2167    0.0000 C   0  0  0  0  0  0  0  0  0  0  0  0
   -3.9458   -4.4417    0.0000 N   0  0  0  0  0  0  0  0  0  0  0  0
   14.1292    1.1375    0.0000 N   0  0  0  0  0  0  0  0  0  0  0  0
    1.0667   -4.0792    0.0000 C   0  0  0  0  0  0  0  0  0  0  0  0
    3.9250   -5.7542    0.0000 C   0  0  0  0  0  0  0  0  0  0  0  0
   -2.4958   -2.8042    0.0000 C   0  0  0  0  0  0  0  0  0  0  0  0
   13.6417    0.4958    0.0000 C   0  0  0  0  0  0  0  0  0  0  0  0
   -3.9583   -5.2750    0.0000 C   0  0  0  0  0  0  0  0  0  0  0  0
   12.1375   -1.4667    0.0000 C   0  0  0  0  0  0  0  0  0  0  0  0
    8.2417   -3.3167    0.0000 O   0  0  0  0  0  0  0  0  0  0  0  0
    9.2750   -2.8667    0.0000 O   0  0  0  0  0  0  0  0  0  0  0  0
    1.8042   -2.0167    0.0000 C   0  0  0  0  0  0  0  0  0  0  0  0
   -0.3500   -3.2375    0.0000 O   0  0  0  0  0  0  0  0  0  0  0  0
    6.0750   -5.3625    0.0000 O   0  0  0  0  0  0  0  0  0  0  0  0
   11.9500   -2.8792    0.0000 O   0  0  0  0  0  0  0  0  0  0  0  0
    3.9417   -3.2792    0.0000 O   0  0  0  0  0  0  0  0  0  0  0  0
   -2.5208   -5.2875    0.0000 O   0  0  0  0  0  0  0  0  0  0  0  0
    1.7792   -5.3250    0.0000 O   0  0  0  0  0  0  0  0  0  0  0  0
   -1.0875   -5.3000    0.0000 C   0  0  0  0  0  0  0  0  0  0  0  0
    3.9167   -6.5875    0.0000 O   0  0  0  0  0  0  0  0  0  0  0  0
   -2.4958   -1.9792    0.0000 O   0  0  0  0  0  0  0  0  0  0  0  0
   -4.6708   -5.6792    0.0000 O   0  0  0  0  0  0  0  0  0  0  0  0
    2.5292   -1.6125    0.0000 O   0  0  0  0  0  0  0  0  0  0  0  0
    1.0792   -3.2542    0.0000 C   0  0  0  0  0  0  0  0  0  0  0  0
   12.9542   -1.5792    0.0000 C   0  0  0  0  0  0  0  0  0  0  0  0
   11.8167   -0.7125    0.0000 C   0  0  0  0  0  0  0  0  0  0  0  0
    7.5042   -5.3792    0.0000 C   0  0  0  0  0  0  0  0  0  0  0  0
   13.1417   -0.1542    0.0000 C   0  0  0  0  0  0  0  0  0  0  0  0
    9.0292   -5.3792    0.0000 C   0  0  0  0  0  0  0  0  0  0  0  0
    5.3792   -3.2917    0.0000 C   0  0  0  0  0  0  0  0  0  0  0  0
    1.8042   -2.8417    0.0000 C   0  0  0  0  0  0  0  0  0  0  0  0
    4.6417   -5.3542    0.0000 O   0  0  0  0  0  0  0  0  0  0  0  0
   -1.7833   -3.2250    0.0000 O   0  0  0  0  0  0  0  0  0  0  0  0
    1.0917   -1.6000    0.0000 O   0  0  0  0  0  0  0  0  0  0  0  0
   12.3167   -0.0542    0.0000 C   0  0  0  0  0  0  0  0  0  0  0  0
   13.4542   -0.9292    0.0000 C   0  0  0  0  0  0  0  0  0  0  0  0
   10.2542   -4.8542    0.0000 C   0  0  0  0  0  0  0  0  0  0  0  0
   -0.3750   -5.7167    0.0000 O   0  0  0  0  0  0  0  0  0  0  0  0
   10.2417   -1.8167    0.0000 C   0  0  0  0  0  0  0  0  0  0  0  0
    9.8292   -5.5667    0.0000 C   0  0  0  0  0  0  0  0  0  0  0  0
   -3.2375   -5.6917    0.0000 C   0  0  0  0  0  0  0  0  0  0  0  0
   -1.8083   -5.7042    0.0000 C   0  0  0  0  0  0  0  0  0  0  0  0
    6.7875   -5.7792    0.0000 C   0  0  0  0  0  0  0  0  0  0  0  0
    8.2167   -5.7917    0.0000 C   0  0  0  0  0  0  0  0  0  0  0  0
    6.1000   -2.8792    0.0000 C   0  0  0  0  0  0  0  0  0  0  0  0
    4.6667   -2.8667    0.0000 C   0  0  0  0  0  0  0  0  0  0  0  0
   10.4167   -1.0042    0.0000 C   0  0  0  0  0  0  0  0  0  0  0  0
    9.8125   -0.4542    0.0000 C   0  0  0  0  0  0  0  0  0  0  0  0
  2  1  1  0
 11  3  1  1
  4  5  1  0
  5 18  1  0
  6  8  1  0
  4  7  1  6
 10  8  1  6
 20  9  1  1
 10  2  1  0
 11  1  1  0
 12  7  1  0
 13  9  1  0
 14  3  1  0
 15 16  1  0
 16 14  1  0
 17 19  1  0
 27 18  1  1
 21 19  1  6
 20  6  1  0
 21 13  1  0
 22 12  1  0
 21 23  1  0
 22 24  1  1
 25 22  1  0
 26 30  3  0
 27 17  1  0
 28 23  1  0
 29 24  1  0
 30 51  1  0
 31 25  1  0
 32 15  1  0
 33  2  2  0
 34  3  2  0
 35 54  1  0
 36  5  2  0
 37  6  2  0
 38 15  2  0
 39 13  2  0
 40 12  2  0
 41 17  2  0
  4 42  1  0
 43 28  2  0
 44 29  2  0
 45 31  2  0
 46 35  2  0
 27 47  1  0
 48 32  2  0
 49 32  1  0
 10 50  1  0
 51 58  1  0
 52  1  1  0
 20 53  1  0
 54 47  1  0
 55 28  1  0
 56 29  1  0
 57 35  1  0
 58 49  2  0
 59 48  1  0
 11 60  1  0
 42 61  1  6
 62 16  1  0
 63 52  1  0
 64 31  1  0
 65 42  1  0
 66 50  1  0
 67 50  1  0
 68 53  1  0
 69 53  1  0
 70 62  1  0
 71 70  1  0
 60 63  1  0
 59 51  2  0
M  END

> <chembl_id>
CHEMBL217439

> <chembl_pref_name>
None

$$$$

     RDKit          2D

 74 75  0  0  1  0  0  0  0  0999 V2000
   12.7167   -0.5917    0.0000 C   0  0  0  0  0  0  0  0  0  0  0  0
    9.4875   -3.6542    0.0000 N   0  0  0  0  0  0  0  0  0  0  0  0
    8.7750   -3.2375    0.0000 C   0  0  0  0  0  0  0  0  0  0  0  0
   13.5250   -0.7542    0.0000 C   0  0  0  0  0  0  0  0  0  0  0  0
   12.4500    0.1833    0.0000 C   0  0  0  0  0  0  0  0  0  0  0  0
   12.1792   -1.2167    0.0000 C   0  0  0  0  0  0  0  0  0  0  0  0
   14.0667   -0.1375    0.0000 C   0  0  0  0  0  0  0  0  0  0  0  0
   12.9875    0.8000    0.0000 C   0  0  0  0  0  0  0  0  0  0  0  0
   13.8000    0.6458    0.0000 C   0  0  0  0  0  0  0  0  0  0  0  0
   10.4292   -2.5167    0.0000 C   0  0  0  0  0  0  0  0  0  0  0  0
   -0.5375   -3.5667    0.0000 C   0  0  0  0  0  0  0  0  0  0  0  0
    0.1875   -3.1625    0.0000 C   0  0  0  0  0  0  0  0  0  0  0  0
    6.6250   -3.6292    0.0000 C   0  0  0  0  0  0  0  0  0  0  0  0
   -1.2500   -3.1417    0.0000 N   0  0  0  0  0  0  0  0  0  0  0  0
    7.3417   -3.2292    0.0000 N   0  0  0  0  0  0  0  0  0  0  0  0
    5.1917   -3.6167    0.0000 N   0  0  0  0  0  0  0  0  0  0  0  0
    8.0542   -3.6500    0.0000 C   0  0  0  0  0  0  0  0  0  0  0  0
   10.2417   -3.3292    0.0000 C   0  0  0  0  0  0  0  0  0  0  0  0
   -1.9708   -3.5542    0.0000 C   0  0  0  0  0  0  0  0  0  0  0  0
    4.4792   -3.2000    0.0000 C   0  0  0  0  0  0  0  0  0  0  0  0
   11.2125   -2.2750    0.0000 N   0  0  0  0  0  0  0  0  0  0  0  0
   11.3917   -1.4667    0.0000 N   0  0  0  0  0  0  0  0  0  0  0  0
    2.3292   -3.5917    0.0000 C   0  0  0  0  0  0  0  0  0  0  0  0
    0.8917   -3.5792    0.0000 N   0  0  0  0  0  0  0  0  0  0  0  0
    3.0417   -3.1875    0.0000 N   0  0  0  0  0  0  0  0  0  0  0  0
    5.9125   -3.2125    0.0000 C   0  0  0  0  0  0  0  0  0  0  0  0
    3.7625   -3.6042    0.0000 C   0  0  0  0  0  0  0  0  0  0  0  0
   -2.6833   -3.1375    0.0000 C   0  0  0  0  0  0  0  0  0  0  0  0
    3.7542   -4.4292    0.0000 C   0  0  0  0  0  0  0  0  0  0  0  0
   -2.6750   -2.3125    0.0000 C   0  0  0  0  0  0  0  0  0  0  0  0
   -3.4000   -3.5417    0.0000 N   0  0  0  0  0  0  0  0  0  0  0  0
    1.6125   -3.1750    0.0000 C   0  0  0  0  0  0  0  0  0  0  0  0
    4.4667   -4.8542    0.0000 C   0  0  0  0  0  0  0  0  0  0  0  0
   -1.9583   -1.9000    0.0000 C   0  0  0  0  0  0  0  0  0  0  0  0
   -3.4083   -4.3667    0.0000 C   0  0  0  0  0  0  0  0  0  0  0  0
    8.7792   -2.4125    0.0000 O   0  0  0  0  0  0  0  0  0  0  0  0
    9.8167   -1.9625    0.0000 O   0  0  0  0  0  0  0  0  0  0  0  0
    2.3500   -1.1125    0.0000 C   0  0  0  0  0  0  0  0  0  0  0  0
   12.4417   -2.0000    0.0000 O   0  0  0  0  0  0  0  0  0  0  0  0
    0.1917   -2.3292    0.0000 O   0  0  0  0  0  0  0  0  0  0  0  0
    6.6167   -4.4542    0.0000 O   0  0  0  0  0  0  0  0  0  0  0  0
    4.4875   -2.3750    0.0000 O   0  0  0  0  0  0  0  0  0  0  0  0
   -1.9750   -4.3792    0.0000 O   0  0  0  0  0  0  0  0  0  0  0  0
    2.3167   -4.4167    0.0000 O   0  0  0  0  0  0  0  0  0  0  0  0
   11.6375    0.3333    0.0000 F   0  0  0  0  0  0  0  0  0  0  0  0
   13.7917   -1.5375    0.0000 F   0  0  0  0  0  0  0  0  0  0  0  0
   -0.5458   -4.3917    0.0000 C   0  0  0  0  0  0  0  0  0  0  0  0
   12.7167    1.5833    0.0000 F   0  0  0  0  0  0  0  0  0  0  0  0
   14.8792   -0.2917    0.0000 F   0  0  0  0  0  0  0  0  0  0  0  0
   14.3417    1.2708    0.0000 F   0  0  0  0  0  0  0  0  0  0  0  0
    4.4542   -5.6792    0.0000 O   0  0  0  0  0  0  0  0  0  0  0  0
   -1.9500   -1.0750    0.0000 O   0  0  0  0  0  0  0  0  0  0  0  0
   -4.1250   -4.7792    0.0000 O   0  0  0  0  0  0  0  0  0  0  0  0
    3.0667   -0.7042    0.0000 O   0  0  0  0  0  0  0  0  0  0  0  0
    1.6250   -2.3500    0.0000 C   0  0  0  0  0  0  0  0  0  0  0  0
    8.0500   -4.4750    0.0000 C   0  0  0  0  0  0  0  0  0  0  0  0
    9.5667   -4.4792    0.0000 C   0  0  0  0  0  0  0  0  0  0  0  0
    5.9167   -2.3875    0.0000 C   0  0  0  0  0  0  0  0  0  0  0  0
    2.3417   -1.9375    0.0000 C   0  0  0  0  0  0  0  0  0  0  0  0
    5.1875   -4.4417    0.0000 O   0  0  0  0  0  0  0  0  0  0  0  0
   -1.2458   -2.3167    0.0000 O   0  0  0  0  0  0  0  0  0  0  0  0
    1.6375   -0.6917    0.0000 O   0  0  0  0  0  0  0  0  0  0  0  0
   10.7917   -3.9500    0.0000 C   0  0  0  0  0  0  0  0  0  0  0  0
    0.1667   -4.8167    0.0000 O   0  0  0  0  0  0  0  0  0  0  0  0
   10.7792   -0.9125    0.0000 C   0  0  0  0  0  0  0  0  0  0  0  0
   10.3750   -4.6625    0.0000 C   0  0  0  0  0  0  0  0  0  0  0  0
   -2.6958   -4.7875    0.0000 C   0  0  0  0  0  0  0  0  0  0  0  0
   -1.2708   -4.8042    0.0000 C   0  0  0  0  0  0  0  0  0  0  0  0
    7.3292   -4.8792    0.0000 C   0  0  0  0  0  0  0  0  0  0  0  0
    8.7625   -4.8917    0.0000 C   0  0  0  0  0  0  0  0  0  0  0  0
    6.6417   -1.9792    0.0000 C   0  0  0  0  0  0  0  0  0  0  0  0
    5.2042   -1.9667    0.0000 C   0  0  0  0  0  0  0  0  0  0  0  0
   10.9542   -0.1042    0.0000 C   0  0  0  0  0  0  0  0  0  0  0  0
   10.3542    0.4500    0.0000 C   0  0  0  0  0  0  0  0  0  0  0  0
  2 18  1  0
  3  2  1  0
  4  1  2  0
  5  1  1  0
  6  1  1  0
  7  4  1  0
  8  5  2  0
  9  8  1  0
 10 21  1  0
 11 12  1  0
 12 24  1  0
 13 15  1  0
 11 14  1  6
 17 15  1  6
 26 16  1  1
 17  3  1  0
 18 10  1  1
 19 14  1  0
 20 16  1  0
 21 22  1  0
 22  6  1  0
 23 25  1  0
 32 24  1  1
 27 25  1  6
 26 13  1  0
 27 20  1  0
 28 19  1  0
 27 29  1  0
 28 30  1  1
 31 28  1  0
 32 23  1  0
 33 29  1  0
 34 30  1  0
 35 31  1  0
 36  3  2  0
 37 10  2  0
 38 59  1  0
 39  6  2  0
 40 12  2  0
 41 13  2  0
 42 20  2  0
 43 19  2  0
 44 23  2  0
 45  5  1  0
 46  4  1  0
 11 47  1  0
 48  8  1  0
 49  7  1  0
 50  9  1  0
 51 33  2  0
 52 34  2  0
 53 35  2  0
 54 38  2  0
 32 55  1  0
 17 56  1  0
 57  2  1  0
 26 58  1  0
 59 55  1  0
 60 33  1  0
 61 34  1  0
 62 38  1  0
 18 63  1  0
 47 64  1  6
 65 22  1  0
 66 63  1  0
 67 35  1  0
 68 47  1  0
 69 56  1  0
 70 56  1  0
 71 58  1  0
 72 58  1  0
 73 65  1  0
 74 73  1  0
  7  9  2  0
 66 57  1  0
M  END

> <chembl_id>
CHEMBL263697

> <chembl_pref_name>
None

$$$$

     RDKit          2D

 77 78  0  0  1  0  0  0  0  0999 V2000
    9.1167   -4.7917    0.0000 N   0  0  0  0  0  0  0  0  0  0  0  0
    8.4042   -4.3750    0.0000 C   0  0  0  0  0  0  0  0  0  0  0  0
   10.0542   -3.6542    0.0000 C   0  0  0  0  0  0  0  0  0  0  0  0
   -0.9083   -4.7042    0.0000 C   0  0  0  0  0  0  0  0  0  0  0  0
   -0.1833   -4.3000    0.0000 C   0  0  0  0  0  0  0  0  0  0  0  0
    6.2542   -4.7667    0.0000 C   0  0  0  0  0  0  0  0  0  0  0  0
   -1.6208   -4.2875    0.0000 N   0  0  0  0  0  0  0  0  0  0  0  0
    6.9667   -4.3667    0.0000 N   0  0  0  0  0  0  0  0  0  0  0  0
   11.8042   -2.3542    0.0000 C   0  0  0  0  0  0  0  0  0  0  0  0
   12.3250   -1.7125    0.0000 C   0  0  0  0  0  0  0  0  0  0  0  0
    4.8167   -4.7542    0.0000 N   0  0  0  0  0  0  0  0  0  0  0  0
    7.6875   -4.7792    0.0000 C   0  0  0  0  0  0  0  0  0  0  0  0
   14.4667   -1.3292    0.0000 C   0  0  0  0  0  0  0  0  0  0  0  0
   12.2417    0.4583    0.0000 C   0  0  0  0  0  0  0  0  0  0  0  0
    9.8750   -4.4667    0.0000 C   0  0  0  0  0  0  0  0  0  0  0  0
   -2.3375   -4.6917    0.0000 C   0  0  0  0  0  0  0  0  0  0  0  0
    4.1042   -4.3375    0.0000 C   0  0  0  0  0  0  0  0  0  0  0  0
   10.8417   -3.4125    0.0000 N   0  0  0  0  0  0  0  0  0  0  0  0
   11.0167   -2.6042    0.0000 N   0  0  0  0  0  0  0  0  0  0  0  0
    1.9542   -4.7292    0.0000 C   0  0  0  0  0  0  0  0  0  0  0  0
   13.6542   -1.2042    0.0000 C   0  0  0  0  0  0  0  0  0  0  0  0
   12.5417   -0.3042    0.0000 C   0  0  0  0  0  0  0  0  0  0  0  0
    0.5250   -4.7167    0.0000 N   0  0  0  0  0  0  0  0  0  0  0  0
    2.6750   -4.3167    0.0000 N   0  0  0  0  0  0  0  0  0  0  0  0
    5.5417   -4.3500    0.0000 C   0  0  0  0  0  0  0  0  0  0  0  0
    3.3917   -4.7417    0.0000 C   0  0  0  0  0  0  0  0  0  0  0  0
   -3.0583   -4.2750    0.0000 C   0  0  0  0  0  0  0  0  0  0  0  0
    3.3792   -5.5667    0.0000 C   0  0  0  0  0  0  0  0  0  0  0  0
   -3.0458   -3.4500    0.0000 C   0  0  0  0  0  0  0  0  0  0  0  0
   13.1375   -1.8417    0.0000 C   0  0  0  0  0  0  0  0  0  0  0  0
   12.0292   -0.9500    0.0000 C   0  0  0  0  0  0  0  0  0  0  0  0
   -3.7708   -4.6792    0.0000 N   0  0  0  0  0  0  0  0  0  0  0  0
   13.3625   -0.4292    0.0000 C   0  0  0  0  0  0  0  0  0  0  0  0
    1.2417   -4.3125    0.0000 C   0  0  0  0  0  0  0  0  0  0  0  0
   -2.3250   -3.0375    0.0000 C   0  0  0  0  0  0  0  0  0  0  0  0
    4.0917   -5.9917    0.0000 C   0  0  0  0  0  0  0  0  0  0  0  0
   -3.7833   -5.5042    0.0000 C   0  0  0  0  0  0  0  0  0  0  0  0
    8.4125   -3.5500    0.0000 O   0  0  0  0  0  0  0  0  0  0  0  0
    9.4417   -3.1000    0.0000 O   0  0  0  0  0  0  0  0  0  0  0  0
    1.9792   -2.2500    0.0000 C   0  0  0  0  0  0  0  0  0  0  0  0
   -0.1833   -3.4667    0.0000 O   0  0  0  0  0  0  0  0  0  0  0  0
    6.2417   -5.5917    0.0000 O   0  0  0  0  0  0  0  0  0  0  0  0
   12.1000   -3.1250    0.0000 O   0  0  0  0  0  0  0  0  0  0  0  0
    4.1167   -3.5125    0.0000 O   0  0  0  0  0  0  0  0  0  0  0  0
   -2.3458   -5.5167    0.0000 O   0  0  0  0  0  0  0  0  0  0  0  0
    1.9500   -5.5542    0.0000 O   0  0  0  0  0  0  0  0  0  0  0  0
   -0.9208   -5.5292    0.0000 C   0  0  0  0  0  0  0  0  0  0  0  0
    4.0875   -6.8167    0.0000 O   0  0  0  0  0  0  0  0  0  0  0  0
   -2.3208   -2.2125    0.0000 O   0  0  0  0  0  0  0  0  0  0  0  0
   -4.4958   -5.9167    0.0000 O   0  0  0  0  0  0  0  0  0  0  0  0
    2.7000   -1.8417    0.0000 O   0  0  0  0  0  0  0  0  0  0  0  0
   13.0625    0.5500    0.0000 F   0  0  0  0  0  0  0  0  0  0  0  0
   14.9917   -0.6917    0.0000 F   0  0  0  0  0  0  0  0  0  0  0  0
   14.1375   -2.0875    0.0000 F   0  0  0  0  0  0  0  0  0  0  0  0
   14.7667   -2.1042    0.0000 F   0  0  0  0  0  0  0  0  0  0  0  0
   12.7542    1.1083    0.0000 F   0  0  0  0  0  0  0  0  0  0  0  0
   11.4292    0.5875    0.0000 F   0  0  0  0  0  0  0  0  0  0  0  0
    1.2542   -3.4875    0.0000 C   0  0  0  0  0  0  0  0  0  0  0  0
    7.6792   -5.6125    0.0000 C   0  0  0  0  0  0  0  0  0  0  0  0
    9.2000   -5.6167    0.0000 C   0  0  0  0  0  0  0  0  0  0  0  0
    5.5500   -3.5250    0.0000 C   0  0  0  0  0  0  0  0  0  0  0  0
    1.9750   -3.0750    0.0000 C   0  0  0  0  0  0  0  0  0  0  0  0
    4.8167   -5.5875    0.0000 O   0  0  0  0  0  0  0  0  0  0  0  0
   -1.6125   -3.4542    0.0000 O   0  0  0  0  0  0  0  0  0  0  0  0
    1.2667   -1.8292    0.0000 O   0  0  0  0  0  0  0  0  0  0  0  0
   10.4250   -5.0875    0.0000 C   0  0  0  0  0  0  0  0  0  0  0  0
   -0.2083   -5.9542    0.0000 O   0  0  0  0  0  0  0  0  0  0  0  0
   10.4125   -2.0500    0.0000 C   0  0  0  0  0  0  0  0  0  0  0  0
   10.0042   -5.8000    0.0000 C   0  0  0  0  0  0  0  0  0  0  0  0
   -3.0708   -5.9250    0.0000 C   0  0  0  0  0  0  0  0  0  0  0  0
   -1.6375   -5.9417    0.0000 C   0  0  0  0  0  0  0  0  0  0  0  0
    6.9542   -6.0167    0.0000 C   0  0  0  0  0  0  0  0  0  0  0  0
    8.3917   -6.0292    0.0000 C   0  0  0  0  0  0  0  0  0  0  0  0
    6.2667   -3.1167    0.0000 C   0  0  0  0  0  0  0  0  0  0  0  0
    4.8375   -3.1042    0.0000 C   0  0  0  0  0  0  0  0  0  0  0  0
   10.5917   -1.2417    0.0000 C   0  0  0  0  0  0  0  0  0  0  0  0
    9.9792   -0.6875    0.0000 C   0  0  0  0  0  0  0  0  0  0  0  0
  2  1  1  0
 15  3  1  1
  4  5  1  0
  5 23  1  0
  6  8  1  0
  4  7  1  6
 12  8  1  6
  9 19  1  0
 10  9  1  0
 25 11  1  1
 12  2  1  0
 13 21  1  0
 14 22  1  0
 15  1  1  0
 16  7  1  0
 17 11  1  0
 18  3  1  0
 19 18  1  0
 20 24  1  0
 21 30  1  0
 22 31  2  0
 34 23  1  1
 26 24  1  6
 25  6  1  0
 26 17  1  0
 27 16  1  0
 26 28  1  0
 27 29  1  1
 30 10  2  0
 31 10  1  0
 32 27  1  0
 33 22  1  0
 34 20  1  0
 35 29  1  0
 36 28  1  0
 37 32  1  0
 38  2  2  0
 39  3  2  0
 40 62  1  0
 41  5  2  0
 42  6  2  0
 43  9  2  0
 44 17  2  0
 45 16  2  0
 46 20  2  0
  4 47  1  0
 48 36  2  0
 49 35  2  0
 50 37  2  0
 51 40  2  0
 52 14  1  0
 53 13  1  0
 54 13  1  0
 55 13  1  0
 56 14  1  0
 57 14  1  0
 34 58  1  0
 12 59  1  0
 60  1  1  0
 25 61  1  0
 62 58  1  0
 63 36  1  0
 64 35  1  0
 65 40  1  0
 15 66  1  0
 47 67  1  6
 68 19  1  0
 69 60  1  0
 70 37  1  0
 71 47  1  0
 72 59  1  0
 73 59  1  0
 74 61  1  0
 75 61  1  0
 76 68  1  0
 77 76  1  0
 66 69  1  0
 21 33  2  0
M  END

> <chembl_id>
CHEMBL413721

> <chembl_pref_name>
None

$$$$

     RDKit          2D

 19 19  0  0  1  0  0  0  0  0999 V2000
    2.5973   -1.5031    0.0000 O   0  0  0  0  0  0  0  0  0  0  0  0
    4.9336   -3.1588    0.0000 O   0  0  0  0  0  0  0  0  0  0  0  0
   -5.2003    1.4932    0.0000 O   0  0  0  0  0  0  0  0  0  0  0  0
    5.1894   -6.0109    0.0000 N   0  0  0  0  0  0  0  0  0  0  0  0
    1.2990   -0.7500    0.0000 C   0  0  0  0  0  0  0  0  0  0  0  0
   -1.2990    0.7500    0.0000 C   0  0  0  0  0  0  0  0  0  0  0  0
    1.2990    0.7500    0.0000 C   0  0  0  0  0  0  0  0  0  0  0  0
    0.0000   -1.5000    0.0000 C   0  0  0  0  0  0  0  0  0  0  0  0
    0.0000    1.5000    0.0000 C   0  0  0  0  0  0  0  0  0  0  0  0
   -1.2990   -0.7500    0.0000 C   0  0  0  0  0  0  0  0  0  0  0  0
   -2.6003    1.4977    0.0000 C   0  0  0  0  0  0  0  0  0  0  0  0
    2.5951   -3.0039    0.0000 C   0  0  0  0  0  0  0  0  0  0  0  0
    3.8933   -3.7570    0.0000 C   0  0  0  0  0  0  0  0  0  0  0  0
   -3.8990    0.7455    0.0000 C   0  0  0  0  0  0  0  0  0  0  0  0
    3.8912   -5.2578    0.0000 C   0  0  0  0  0  0  0  0  0  0  0  0
    5.1873   -7.5117    0.0000 C   0  0  0  0  0  0  0  0  0  0  0  0
   -6.2387    0.8917    0.0000 C   0  0  0  0  0  0  0  0  0  0  0  0
    6.2253   -8.1139    0.0000 C   0  0  0  0  0  0  0  0  0  0  0  0
    4.1470   -8.1099    0.0000 C   0  0  0  0  0  0  0  0  0  0  0  0
  1  5  1  0
  1 12  1  0
  2 13  1  0
  3 14  1  0
  3 17  1  0
  4 15  1  0
  4 16  1  0
  5  7  2  0
  5  8  1  0
  6  9  2  0
  6 10  1  0
  6 11  1  0
  7  9  1  0
  8 10  2  0
 11 14  1  0
 12 13  1  0
 13 15  1  0
 16 18  1  0
 16 19  1  0
M  END

> <chembl_id>
CHEMBL13

> <chembl_pref_name>
METOPROLOL

$$$$

     RDKit          2D

 21 23  0  0  0  0  0  0  0  0999 V2000
    2.8792   -1.0500    0.0000 C   0  0  0  0  0  0  0  0  0  0  0  0
    3.5917   -1.4625    0.0000 C   0  0  0  0  0  0  0  0  0  0  0  0
    3.5917   -2.2875    0.0000 C   0  0  0  0  0  0  0  0  0  0  0  0
    2.8792   -0.2167    0.0000 C   0  0  0  0  0  0  0  0  0  0  0  0
    2.8792   -2.7000    0.0000 O   0  0  0  0  0  0  0  0  0  0  0  0
    5.0167   -2.2875    0.0000 C   0  0  0  0  0  0  0  0  0  0  0  0
    2.1625   -2.2875    0.0000 C   0  0  0  0  0  0  0  0  0  0  0  0
    2.1625   -1.4625    0.0000 C   0  0  0  0  0  0  0  0  0  0  0  0
    5.7292   -2.7000    0.0000 N   0  0  0  0  0  0  0  0  0  0  0  0
    4.3042   -2.7000    0.0000 C   0  0  0  0  0  0  0  0  0  0  0  0
    4.3042   -1.0500    0.0000 C   0  0  0  0  0  0  0  0  0  0  0  0
    5.0167   -1.4625    0.0000 C   0  0  0  0  0  0  0  0  0  0  0  0
    1.4417   -2.7042    0.0000 O   0  0  0  0  0  0  0  0  0  0  0  0
    5.7292   -1.0500    0.0000 C   0  0  0  0  0  0  0  0  0  0  0  0
    2.8792    0.6000    0.0000 F   0  0  0  0  0  0  0  0  0  0  0  0
    3.7042   -0.2167    0.0000 F   0  0  0  0  0  0  0  0  0  0  0  0
    2.0542   -0.2167    0.0000 F   0  0  0  0  0  0  0  0  0  0  0  0
    6.4500   -2.2875    0.0000 C   0  0  0  0  0  0  0  0  0  0  0  0
    6.4500   -1.4625    0.0000 C   0  0  0  0  0  0  0  0  0  0  0  0
    7.2750   -2.2875    0.0000 C   0  0  0  0  0  0  0  0  0  0  0  0
    7.6875   -3.0000    0.0000 C   0  0  0  0  0  0  0  0  0  0  0  0
  2  1  1  0
  3  2  2  0
  4  1  1  0
  5  7  1  0
  6 12  1  0
  7  8  1  0
  8  1  2  0
  9  6  1  0
 10  3  1  0
 11  2  1  0
 12 11  2  0
 13  7  2  0
 14 12  1  0
 15  4  1  0
 16  4  1  0
 17  4  1  0
 18 19  1  0
 19 14  1  0
 20 18  1  0
 21 20  1  0
  3  5  1  0
 10  6  2  0
  9 18  1  0
M  END

> <chembl_id>
CHEMBL266473

> <chembl_pref_name>
None

$$$$

     RDKit          2D

 21 23  0  0  0  0  0  0  0  0999 V2000
    4.7375   -1.6042    0.0000 C   0  0  0  0  0  0  0  0  0  0  0  0
    5.4417   -2.0167    0.0000 C   0  0  0  0  0  0  0  0  0  0  0  0
    5.4417   -2.8500    0.0000 C   0  0  0  0  0  0  0  0  0  0  0  0
    4.7417   -0.7792    0.0000 C   0  0  0  0  0  0  0  0  0  0  0  0
    4.7292   -3.2542    0.0000 O   0  0  0  0  0  0  0  0  0  0  0  0
    6.8667   -2.8542    0.0000 C   0  0  0  0  0  0  0  0  0  0  0  0
    7.5792   -3.2750    0.0000 N   0  0  0  0  0  0  0  0  0  0  0  0
    4.0042   -2.8375    0.0000 C   0  0  0  0  0  0  0  0  0  0  0  0
    4.0167   -2.0125    0.0000 C   0  0  0  0  0  0  0  0  0  0  0  0
    6.1500   -3.2667    0.0000 C   0  0  0  0  0  0  0  0  0  0  0  0
    6.1625   -1.6167    0.0000 C   0  0  0  0  0  0  0  0  0  0  0  0
    6.8750   -2.0292    0.0000 C   0  0  0  0  0  0  0  0  0  0  0  0
    8.3000   -2.8667    0.0000 C   0  0  0  0  0  0  0  0  0  0  0  0
    3.2875   -3.2542    0.0000 O   0  0  0  0  0  0  0  0  0  0  0  0
    7.5917   -1.6250    0.0000 C   0  0  0  0  0  0  0  0  0  0  0  0
    4.7500    0.0458    0.0000 F   0  0  0  0  0  0  0  0  0  0  0  0
    5.5667   -0.7875    0.0000 F   0  0  0  0  0  0  0  0  0  0  0  0
    3.9167   -0.7750    0.0000 F   0  0  0  0  0  0  0  0  0  0  0  0
    8.3042   -2.0417    0.0000 C   0  0  0  0  0  0  0  0  0  0  0  0
    9.0125   -2.4500    0.0000 C   0  0  0  0  0  0  0  0  0  0  0  0
    8.5125   -3.6625    0.0000 C   0  0  0  0  0  0  0  0  0  0  0  0
  2  1  1  0
  3  2  2  0
  4  1  1  0
  5  8  1  0
  6 12  1  0
  7  6  1  0
  8  9  1  0
  9  1  2  0
 10  3  1  0
 11  2  1  0
 12 11  2  0
 13 19  1  0
 14  8  2  0
 15 12  1  0
 16  4  1  0
 17  4  1  0
 18  4  1  0
 19 15  1  0
 20 13  1  0
 21 13  1  0
  3  5  1  0
 10  6  2  0
  7 13  1  0
M  END

> <chembl_id>
CHEMBL7289

> <chembl_pref_name>
None

$$$$

     RDKit          2D

 21 24  0  0  0  0  0  0  0  0999 V2000
    2.7542   -4.2542    0.0000 N   0  0  0  0  0  0  0  0  0  0  0  0
    3.4792   -3.0167    0.0000 C   0  0  0  0  0  0  0  0  0  0  0  0
    3.4792   -3.8417    0.0000 C   0  0  0  0  0  0  0  0  0  0  0  0
    2.0417   -3.0125    0.0000 C   0  0  0  0  0  0  0  0  0  0  0  0
    2.0417   -3.8375    0.0000 C   0  0  0  0  0  0  0  0  0  0  0  0
    2.7500   -5.0792    0.0000 C   0  0  0  0  0  0  0  0  0  0  0  0
    3.2292   -2.2292    0.0000 S   0  0  0  0  0  0  0  0  0  0  0  0
    4.3042   -3.0167    0.0000 S   0  0  0  0  0  0  0  0  0  0  0  0
    2.0292   -5.4875    0.0000 N   0  0  0  0  0  0  0  0  0  0  0  0
    4.1917   -4.2542    0.0000 O   0  0  0  0  0  0  0  0  0  0  0  0
    0.5917   -6.2917    0.0000 O   0  0  0  0  0  0  0  0  0  0  0  0
    1.3292   -2.6000    0.0000 C   0  0  0  0  0  0  0  0  0  0  0  0
    1.3292   -4.2542    0.0000 C   0  0  0  0  0  0  0  0  0  0  0  0
    1.3250   -5.0667    0.0000 C   0  0  0  0  0  0  0  0  0  0  0  0
    2.0292   -6.3125    0.0000 C   0  0  0  0  0  0  0  0  0  0  0  0
    3.8917   -1.7500    0.0000 C   0  0  0  0  0  0  0  0  0  0  0  0
    4.5667   -2.2292    0.0000 C   0  0  0  0  0  0  0  0  0  0  0  0
    1.3042   -6.7167    0.0000 C   0  0  0  0  0  0  0  0  0  0  0  0
    0.6042   -5.4667    0.0000 C   0  0  0  0  0  0  0  0  0  0  0  0
    0.6167   -3.0167    0.0000 C   0  0  0  0  0  0  0  0  0  0  0  0
    0.6167   -3.8417    0.0000 C   0  0  0  0  0  0  0  0  0  0  0  0
  2  3  1  0
  3  1  1  0
  4  5  1  0
  5  1  1  0
  6  1  1  0
  7  2  1  0
  8  2  1  0
  9  6  1  0
 10  3  2  0
 11 18  1  0
 12  4  2  0
 13  5  2  0
 14  9  1  0
 15  9  1  0
 16  7  1  0
 17  8  1  0
 18 15  1  0
 19 14  1  0
 20 21  2  0
 21 13  1  0
  2  4  1  0
 11 19  1  0
 20 12  1  0
 16 17  1  0
M  END

> <chembl_id>
CHEMBL266359

> <chembl_pref_name>
None

$$$$

     RDKit          2D

 24 26  0  0  0  0  0  0  0  0999 V2000
    9.4167   -2.8542    0.0000 S   0  0  0  0  0  0  0  0  0  0  0  0
    5.7167   -2.2750    0.0000 N   0  0  0  0  0  0  0  0  0  0  0  0
    8.9917   -2.1500    0.0000 C   0  0  0  0  0  0  0  0  0  0  0  0
    6.5417   -2.2292    0.0000 N   0  0  0  0  0  0  0  0  0  0  0  0
    6.9167   -1.5000    0.0000 C   0  0  0  0  0  0  0  0  0  0  0  0
    5.2000   -1.6292    0.0000 C   0  0  0  0  0  0  0  0  0  0  0  0
    8.1667   -2.1667    0.0000 C   0  0  0  0  0  0  0  0  0  0  0  0
    4.4292   -1.9292    0.0000 C   0  0  0  0  0  0  0  0  0  0  0  0
    5.2667   -2.9667    0.0000 C   0  0  0  0  0  0  0  0  0  0  0  0
    4.4750   -2.7542    0.0000 C   0  0  0  0  0  0  0  0  0  0  0  0
    7.7375   -1.4542    0.0000 C   0  0  0  0  0  0  0  0  0  0  0  0
    9.3917   -1.4167    0.0000 C   0  0  0  0  0  0  0  0  0  0  0  0
   10.2417   -2.8292    0.0000 O   0  0  0  0  0  0  0  0  0  0  0  0
    9.0250   -3.5750    0.0000 O   0  0  0  0  0  0  0  0  0  0  0  0
    9.8292   -3.5667    0.0000 N   0  0  0  0  0  0  0  0  0  0  0  0
    6.4667   -0.8042    0.0000 O   0  0  0  0  0  0  0  0  0  0  0  0
    8.1375   -0.7292    0.0000 C   0  0  0  0  0  0  0  0  0  0  0  0
    8.9625   -0.7167    0.0000 C   0  0  0  0  0  0  0  0  0  0  0  0
   10.2167   -1.4000    0.0000 Cl  0  0  0  0  0  0  0  0  0  0  0  0
    3.7375   -1.4917    0.0000 C   0  0  0  0  0  0  0  0  0  0  0  0
    4.9792   -0.8292    0.0000 C   0  0  0  0  0  0  0  0  0  0  0  0
    3.6667   -3.1417    0.0000 C   0  0  0  0  0  0  0  0  0  0  0  0
    3.0042   -1.8667    0.0000 C   0  0  0  0  0  0  0  0  0  0  0  0
    2.9667   -2.6917    0.0000 C   0  0  0  0  0  0  0  0  0  0  0  0
  2  4  1  0
  3  1  1  0
  4  5  1  0
  5 11  1  0
  6  2  1  0
  7  3  2  0
  8  6  1  0
  9  2  1  0
 10  9  1  0
 11  7  1  0
 12  3  1  0
 13  1  2  0
 14  1  2  0
 15  1  1  0
 16  5  2  0
 17 18  1  0
 18 12  2  0
 19 12  1  0
 20  8  1  0
 21  6  1  0
 22 10  1  0
 23 20  2  0
 24 22  2  0
 11 17  2  0
 10  8  2  0
 24 23  1  0
M  END

> <chembl_id>
CHEMBL6378

> <chembl_pref_name>
ZIDAPAMIDE

$$$$

     RDKit          2D

 18 20  0  0  0  0  0  0  0  0999 V2000
    1.6625   -0.9417    0.0000 C   0  0  0  0  0  0  0  0  0  0  0  0
    2.1792   -1.2417    0.0000 C   0  0  0  0  0  0  0  0  0  0  0  0
    2.7000   -0.9417    0.0000 C   0  0  0  0  0  0  0  0  0  0  0  0
    1.1417   -1.2417    0.0000 O   0  0  0  0  0  0  0  0  0  0  0  0
    1.6625   -0.3417    0.0000 C   0  0  0  0  0  0  0  0  0  0  0  0
    2.7000   -0.3417    0.0000 C   0  0  0  0  0  0  0  0  0  0  0  0
    0.6250   -0.9417    0.0000 C   0  0  0  0  0  0  0  0  0  0  0  0
    1.1417   -0.0417    0.0000 C   0  0  0  0  0  0  0  0  0  0  0  0
    2.1792   -0.0417    0.0000 C   0  0  0  0  0  0  0  0  0  0  0  0
    0.6250   -0.3417    0.0000 C   0  0  0  0  0  0  0  0  0  0  0  0
    3.2750   -1.1292    0.0000 O   0  0  0  0  0  0  0  0  0  0  0  0
    3.6292   -0.6417    0.0000 C   0  0  0  0  0  0  0  0  0  0  0  0
    3.2750   -0.1542    0.0000 C   0  0  0  0  0  0  0  0  0  0  0  0
    0.1042   -1.2417    0.0000 O   0  0  0  0  0  0  0  0  0  0  0  0
    2.1792   -1.8417    0.0000 O   0  0  0  0  0  0  0  0  0  0  0  0
    1.1417   -3.0417    0.0000 O   0  0  0  0  0  0  0  0  0  0  0  0
    1.6625   -2.1417    0.0000 C   0  0  0  0  0  0  0  0  0  0  0  0
    1.6625   -2.7417    0.0000 C   0  0  0  0  0  0  0  0  0  0  0  0
  2  1  1  0
  3  2  2  0
  4  1  1  0
  5  1  2  0
  6  9  2  0
  7  4  1  0
  8  5  1  0
  9  5  1  0
 10  8  2  0
 11  3  1  0
 12 11  1  0
 13  6  1  0
 14  7  2  0
 15  2  1  0
 16 18  1  0
 17 15  1  0
 18 17  1  0
  6  3  1  0
 10  7  1  0
 12 13  2  0
M  END

> <chembl_id>
CHEMBL6379

> <chembl_pref_name>
None

$$$$

     RDKit          2D

 24 26  0  0  0  0  0  0  0  0999 V2000
    5.7542   -2.3417    0.0000 Cl  0  0  0  0  0  0  0  0  0  0  0  0
    2.9917   -3.4917    0.0000 C   0  0  0  0  0  0  0  0  0  0  0  0
    2.9917   -2.8917    0.0000 C   0  0  0  0  0  0  0  0  0  0  0  0
    3.5125   -2.5917    0.0000 C   0  0  0  0  0  0  0  0  0  0  0  0
    3.5125   -3.7917    0.0000 C   0  0  0  0  0  0  0  0  0  0  0  0
    4.0292   -3.4917    0.0000 C   0  0  0  0  0  0  0  0  0  0  0  0
    4.0292   -2.8917    0.0000 C   0  0  0  0  0  0  0  0  0  0  0  0
    2.4792   -3.7917    0.0000 O   0  0  0  0  0  0  0  0  0  0  0  0
    2.4792   -2.5917    0.0000 C   0  0  0  0  0  0  0  0  0  0  0  0
    4.0250   -1.6917    0.0000 N   0  0  0  0  0  0  0  0  0  0  0  0
    1.9542   -3.4917    0.0000 C   0  0  0  0  0  0  0  0  0  0  0  0
    3.5042   -1.9917    0.0000 C   0  0  0  0  0  0  0  0  0  0  0  0
    1.9542   -2.8917    0.0000 C   0  0  0  0  0  0  0  0  0  0  0  0
    4.6042   -3.6792    0.0000 O   0  0  0  0  0  0  0  0  0  0  0  0
    4.6042   -2.7042    0.0000 C   0  0  0  0  0  0  0  0  0  0  0  0
    4.9625   -3.1917    0.0000 C   0  0  0  0  0  0  0  0  0  0  0  0
    1.4375   -3.7917    0.0000 O   0  0  0  0  0  0  0  0  0  0  0  0
    3.5167   -4.3917    0.0000 O   0  0  0  0  0  0  0  0  0  0  0  0
    4.0250   -1.0917    0.0000 C   0  0  0  0  0  0  0  0  0  0  0  0
    4.5417   -1.9917    0.0000 C   0  0  0  0  0  0  0  0  0  0  0  0
    2.9917   -4.6917    0.0000 C   0  0  0  0  0  0  0  0  0  0  0  0
    4.5417   -0.7917    0.0000 C   0  0  0  0  0  0  0  0  0  0  0  0
    5.0625   -1.6917    0.0000 C   0  0  0  0  0  0  0  0  0  0  0  0
    5.0625   -1.0917    0.0000 C   0  0  0  0  0  0  0  0  0  0  0  0
  3  2  2  0
  4  3  1  0
  5  2  1  0
  6  5  2  0
  7  6  1  0
  8  2  1  0
  9  3  1  0
 10 12  1  0
 11  8  1  0
 12  4  1  0
 13 11  1  0
 14  6  1  0
 15  7  1  0
 16 14  1  0
 17 11  2  0
 18  5  1  0
 19 10  1  0
 20 10  1  0
 21 18  1  0
 22 19  1  0
 23 20  1  0
 24 23  1  0
  9 13  2  0
  4  7  2  0
 16 15  2  0
 22 24  1  0
M  END

> <chembl_id>
CHEMBL6701

> <chembl_pref_name>
None

$$$$

     RDKit          2D

 14 15  0  0  0  0  0  0  0  0999 V2000
   -5.4316   -2.8733    0.0000 C   0  0  0  0  0  0  0  0  0  0  0  0
   -5.4327   -3.7001    0.0000 C   0  0  0  0  0  0  0  0  0  0  0  0
   -4.7183   -4.1128    0.0000 C   0  0  0  0  0  0  0  0  0  0  0  0
   -4.7201   -2.4608    0.0000 C   0  0  0  0  0  0  0  0  0  0  0  0
   -4.0051   -2.8696    0.0000 C   0  0  0  0  0  0  0  0  0  0  0  0
   -4.0044   -3.6960    0.0000 C   0  0  0  0  0  0  0  0  0  0  0  0
   -3.2896   -4.1067    0.0000 C   0  0  0  0  0  0  0  0  0  0  0  0
   -2.5749   -3.6922    0.0000 C   0  0  0  0  0  0  0  0  0  0  0  0
   -2.5797   -2.8627    0.0000 C   0  0  0  0  0  0  0  0  0  0  0  0
   -3.2952   -2.4558    0.0000 C   0  0  0  0  0  0  0  0  0  0  0  0
   -3.2996   -1.6312    0.0000 S   0  0  0  0  0  0  0  0  0  0  0  0
   -2.5877   -1.2152    0.0000 N   0  0  0  0  0  0  0  0  0  0  0  0
   -4.1018   -1.8406    0.0000 O   0  0  0  0  0  0  0  0  0  0  0  0
   -3.5187   -0.8287    0.0000 O   0  0  0  0  0  0  0  0  0  0  0  0
  6  7  1  0
  1  2  2  0
  7  8  2  0
  5  4  2  0
  8  9  1  0
  4  1  1  0
  9 10  2  0
 10  5  1  0
 10 11  1  0
  2  3  1  0
 11 12  1  0
  5  6  1  0
 11 13  2  0
  3  6  2  0
 11 14  2  0
M  END

> <chembl_id>
CHEMBL6648

> <chembl_pref_name>
None

$$$$

     RDKit          2D

 23 24  0  0  0  0  0  0  0  0999 V2000
    1.0250   -3.8417    0.0000 C   0  0  0  0  0  0  0  0  0  0  0  0
    1.5417   -4.1292    0.0000 C   0  0  0  0  0  0  0  0  0  0  0  0
    1.0167   -3.2417    0.0000 C   0  0  0  0  0  0  0  0  0  0  0  0
    1.5500   -4.7375    0.0000 C   0  0  0  0  0  0  0  0  0  0  0  0
    0.5042   -4.1417    0.0000 C   0  0  0  0  0  0  0  0  0  0  0  0
    2.0625   -3.8375    0.0000 C   0  0  0  0  0  0  0  0  0  0  0  0
    2.0667   -5.0375    0.0000 F   0  0  0  0  0  0  0  0  0  0  0  0
    0.5917   -2.8167    0.0000 F   0  0  0  0  0  0  0  0  0  0  0  0
    1.3167   -2.7167    0.0000 F   0  0  0  0  0  0  0  0  0  0  0  0
    1.6000   -3.0792    0.0000 F   0  0  0  0  0  0  0  0  0  0  0  0
    1.1250   -5.1542    0.0000 F   0  0  0  0  0  0  0  0  0  0  0  0
    1.5417   -5.3375    0.0000 F   0  0  0  0  0  0  0  0  0  0  0  0
    0.5042   -4.7500    0.0000 C   0  0  0  0  0  0  0  0  0  0  0  0
   -0.0125   -3.8417    0.0000 C   0  0  0  0  0  0  0  0  0  0  0  0
   -0.5333   -4.7500    0.0000 C   0  0  0  0  0  0  0  0  0  0  0  0
   -0.0125   -5.0500    0.0000 C   0  0  0  0  0  0  0  0  0  0  0  0
   -0.5333   -4.1500    0.0000 C   0  0  0  0  0  0  0  0  0  0  0  0
   -1.0500   -5.0500    0.0000 O   0  0  0  0  0  0  0  0  0  0  0  0
    2.5792   -4.1292    0.0000 C   0  0  0  0  0  0  0  0  0  0  0  0
    2.0667   -3.2292    0.0000 C   0  0  0  0  0  0  0  0  0  0  0  0
    2.5792   -2.9292    0.0000 C   0  0  0  0  0  0  0  0  0  0  0  0
    3.1042   -3.8375    0.0000 C   0  0  0  0  0  0  0  0  0  0  0  0
    3.1000   -3.2292    0.0000 C   0  0  0  0  0  0  0  0  0  0  0  0
  2  1  2  0
  3  1  1  0
  4  2  1  0
  5  1  1  0
  6  2  1  0
  7  4  1  0
  8  3  1  0
  9  3  1  0
 10  3  1  0
 11  4  1  0
 12  4  1  0
 13  5  1  0
 14  5  2  0
 15 17  2  0
 16 13  2  0
 17 14  1  0
 18 15  1  0
 19  6  1  0
 20  6  2  0
 21 20  1  0
 22 19  2  0
 23 21  2  0
 16 15  1  0
 23 22  1  0
M  END

> <chembl_id>
CHEMBL6456

> <chembl_pref_name>
None

$$$$

     RDKit          2D

 19 21  0  0  0  0  0  0  0  0999 V2000
    4.2667   -3.0667    0.0000 C   0  0  0  0  0  0  0  0  0  0  0  0
    4.9750   -3.4875    0.0000 C   0  0  0  0  0  0  0  0  0  0  0  0
    4.9667   -4.3167    0.0000 C   0  0  0  0  0  0  0  0  0  0  0  0
    4.2667   -2.2417    0.0000 C   0  0  0  0  0  0  0  0  0  0  0  0
    4.2542   -4.7167    0.0000 O   0  0  0  0  0  0  0  0  0  0  0  0
    3.5375   -4.3042    0.0000 C   0  0  0  0  0  0  0  0  0  0  0  0
    3.5417   -3.4792    0.0000 C   0  0  0  0  0  0  0  0  0  0  0  0
    5.6917   -3.0792    0.0000 C   0  0  0  0  0  0  0  0  0  0  0  0
    5.6792   -4.7292    0.0000 C   0  0  0  0  0  0  0  0  0  0  0  0
    6.4000   -4.3167    0.0000 C   0  0  0  0  0  0  0  0  0  0  0  0
    6.4042   -3.5000    0.0000 C   0  0  0  0  0  0  0  0  0  0  0  0
    7.1042   -4.7417    0.0000 N   0  0  0  0  0  0  0  0  0  0  0  0
    2.8167   -4.7250    0.0000 O   0  0  0  0  0  0  0  0  0  0  0  0
    4.2792   -1.4250    0.0000 F   0  0  0  0  0  0  0  0  0  0  0  0
    5.0917   -2.2542    0.0000 F   0  0  0  0  0  0  0  0  0  0  0  0
    3.4417   -2.2417    0.0000 F   0  0  0  0  0  0  0  0  0  0  0  0
    7.8292   -4.3292    0.0000 C   0  0  0  0  0  0  0  0  0  0  0  0
    7.1167   -3.0917    0.0000 C   0  0  0  0  0  0  0  0  0  0  0  0
    7.8292   -3.5042    0.0000 C   0  0  0  0  0  0  0  0  0  0  0  0
  2  1  1  0
  3  2  2  0
  4  1  1  0
  5  6  1  0
  6  7  1  0
  7  1  2  0
  8  2  1  0
  9  3  1  0
 10 11  1  0
 11  8  2  0
 12 10  1  0
 13  6  2  0
 14  4  1  0
 15  4  1  0
 16  4  1  0
 17 19  1  0
 18 11  1  0
 19 18  1  0
  5  3  1  0
  9 10  2  0
 12 17  1  0
M  END

> <chembl_id>
CHEMBL268098

> <chembl_pref_name>
None

$$$$

     RDKit          2D

 13 13  0  0  0  0  0  0  0  0999 V2000
    0.8085   -1.4499    0.0000 C   0  0  0  0  0  0  0  0  0  0  0  0
    1.5230   -1.0374    0.0000 C   0  0  0  0  0  0  0  0  0  0  0  0
    1.5230   -0.2124    0.0000 C   0  0  0  0  0  0  0  0  0  0  0  0
    0.8085    0.2001    0.0000 C   0  0  0  0  0  0  0  0  0  0  0  0
    0.0941   -0.2124    0.0000 C   0  0  0  0  0  0  0  0  0  0  0  0
    0.0941   -1.0374    0.0000 C   0  0  0  0  0  0  0  0  0  0  0  0
    0.8085   -2.2749    0.0000 S   0  0  0  0  0  0  0  0  0  0  0  0
    0.8085   -3.0999    0.0000 O   0  0  0  0  0  0  0  0  0  0  0  0
    1.6335   -2.2749    0.0000 O   0  0  0  0  0  0  0  0  0  0  0  0
   -0.0165   -2.2749    0.0000 N   0  0  0  0  0  0  0  0  0  0  0  0
    0.8085    1.0251    0.0000 C   0  0  0  0  0  0  0  0  0  0  0  0
    1.5230    1.4376    0.0000 C   0  0  0  0  0  0  0  0  0  0  0  0
    1.5230    2.2626    0.0000 N   0  0  0  0  0  0  0  0  0  0  0  0
  1  6  2  0
  1  2  1  0
  1  7  1  0
  2  3  2  0
  3  4  1  0
  4 11  1  0
  4  5  2  0
  5  6  1  0
 10  7  1  0
  8  7  2  0
  9  7  2  0
 11 12  1  0
 12 13  1  0
M  END

> <chembl_id>
CHEMBL7087

> <chembl_pref_name>
None

$$$$

     RDKit          2D

 24 27  0  0  0  0  0  0  0  0999 V2000
    3.5645   -4.5018    0.0000 C   0  0  0  0  0  0  0  0  0  0  0  0
    3.5723   -5.3308    0.0000 C   0  0  0  0  0  0  0  0  0  0  0  0
    2.8601   -5.7472    0.0000 N   0  0  0  0  0  0  0  0  0  0  0  0
    2.8523   -4.0932    0.0000 N   0  0  0  0  0  0  0  0  0  0  0  0
    4.2884   -5.7394    0.0000 N   0  0  0  0  0  0  0  0  0  0  0  0
    2.1401   -4.5096    0.0000 C   0  0  0  0  0  0  0  0  0  0  0  0
    2.1401   -5.3308    0.0000 C   0  0  0  0  0  0  0  0  0  0  0  0
    4.2767   -4.0815    0.0000 S   0  0  0  0  0  0  0  0  0  0  0  0
    1.4279   -4.0932    0.0000 C   0  0  0  0  0  0  0  0  0  0  0  0
    5.7128   -6.5567    0.0000 N   0  0  0  0  0  0  0  0  0  0  0  0
    1.4279   -5.7511    0.0000 C   0  0  0  0  0  0  0  0  0  0  0  0
    0.7157   -4.5096    0.0000 C   0  0  0  0  0  0  0  0  0  0  0  0
    4.2767   -3.2603    0.0000 C   0  0  0  0  0  0  0  0  0  0  0  0
    0.7157   -5.3386    0.0000 C   0  0  0  0  0  0  0  0  0  0  0  0
   -0.0005   -4.0932    0.0000 Cl  0  0  0  0  0  0  0  0  0  0  0  0
    4.9967   -5.3191    0.0000 C   0  0  0  0  0  0  0  0  0  0  0  0
    4.2884   -6.5645    0.0000 C   0  0  0  0  0  0  0  0  0  0  0  0
    5.0006   -6.9731    0.0000 C   0  0  0  0  0  0  0  0  0  0  0  0
    5.7128   -5.7355    0.0000 C   0  0  0  0  0  0  0  0  0  0  0  0
    3.5606   -2.8556    0.0000 C   0  0  0  0  0  0  0  0  0  0  0  0
    4.9889   -2.8439    0.0000 C   0  0  0  0  0  0  0  0  0  0  0  0
    4.9850   -2.0227    0.0000 C   0  0  0  0  0  0  0  0  0  0  0  0
    3.5528   -2.0344    0.0000 C   0  0  0  0  0  0  0  0  0  0  0  0
    4.2650   -1.6141    0.0000 C   0  0  0  0  0  0  0  0  0  0  0  0
  2  1  1  0
  3  2  2  0
  4  1  2  0
  5  2  1  0
  6  4  1  0
  7  6  1  0
  8  1  1  0
  9  6  2  0
 10 18  1  0
 11  7  2  0
 12  9  1  0
 13  8  1  0
 14 12  2  0
 15 12  1  0
 16  5  1  0
 17  5  1  0
 18 17  1  0
 19 16  1  0
 20 13  1  0
 21 13  2  0
 22 21  1  0
 23 20  2  0
 24 22  2  0
  3  7  1  0
 10 19  1  0
 24 23  1  0
 14 11  1  0
M  END

> <chembl_id>
CHEMBL6888

> <chembl_pref_name>
None

$$$$

     RDKit          2D

 25 27  0  0  0  0  0  0  0  0999 V2000
    9.4167   -2.7000    0.0000 S   0  0  0  0  0  0  0  0  0  0  0  0
    5.7167   -2.1167    0.0000 N   0  0  0  0  0  0  0  0  0  0  0  0
    8.9917   -1.9917    0.0000 C   0  0  0  0  0  0  0  0  0  0  0  0
    5.2000   -1.4792    0.0000 C   0  0  0  0  0  0  0  0  0  0  0  0
    6.5417   -2.0792    0.0000 N   0  0  0  0  0  0  0  0  0  0  0  0
    6.9167   -1.3417    0.0000 C   0  0  0  0  0  0  0  0  0  0  0  0
    8.1667   -2.0125    0.0000 C   0  0  0  0  0  0  0  0  0  0  0  0
    4.4292   -1.7792    0.0000 C   0  0  0  0  0  0  0  0  0  0  0  0
    5.2667   -2.8167    0.0000 C   0  0  0  0  0  0  0  0  0  0  0  0
    4.4750   -2.6000    0.0000 C   0  0  0  0  0  0  0  0  0  0  0  0
    7.7375   -1.3042    0.0000 C   0  0  0  0  0  0  0  0  0  0  0  0
    9.3917   -1.2667    0.0000 C   0  0  0  0  0  0  0  0  0  0  0  0
   10.2417   -2.6792    0.0000 O   0  0  0  0  0  0  0  0  0  0  0  0
    9.0250   -3.4167    0.0000 O   0  0  0  0  0  0  0  0  0  0  0  0
    9.8292   -3.4125    0.0000 N   0  0  0  0  0  0  0  0  0  0  0  0
    6.4667   -0.6500    0.0000 O   0  0  0  0  0  0  0  0  0  0  0  0
    8.1375   -0.5792    0.0000 C   0  0  0  0  0  0  0  0  0  0  0  0
    8.9625   -0.5625    0.0000 C   0  0  0  0  0  0  0  0  0  0  0  0
   10.2167   -1.2417    0.0000 Cl  0  0  0  0  0  0  0  0  0  0  0  0
    4.9792   -0.6792    0.0000 C   0  0  0  0  0  0  0  0  0  0  0  0
    3.7375   -1.3375    0.0000 C   0  0  0  0  0  0  0  0  0  0  0  0
    5.5625   -0.0917    0.0000 O   0  0  0  0  0  0  0  0  0  0  0  0
    3.6667   -2.9875    0.0000 C   0  0  0  0  0  0  0  0  0  0  0  0
    3.0042   -1.7167    0.0000 C   0  0  0  0  0  0  0  0  0  0  0  0
    2.9667   -2.5417    0.0000 C   0  0  0  0  0  0  0  0  0  0  0  0
  2  5  1  0
  3  1  1  0
  4  2  1  0
  5  6  1  0
  6 11  1  0
  7  3  2  0
  8  4  1  0
  9  2  1  0
 10  9  1  0
 11  7  1  0
 12  3  1  0
 13  1  2  0
 14  1  2  0
 15  1  1  0
 16  6  2  0
 17 18  1  0
 18 12  2  0
 19 12  1  0
 20  4  1  0
 21  8  1  0
 22 20  1  0
 23 10  1  0
 24 21  2  0
 25 23  2  0
 17 11  2  0
 10  8  2  0
 25 24  1  0
M  END

> <chembl_id>
CHEMBL6977

> <chembl_pref_name>
None

$$$$

     RDKit          2D

 18 19  0  0  0  0  0  0  0  0999 V2000
    5.4500   -3.5917    0.0000 C   0  0  0  0  0  0  0  0  0  0  0  0
    4.0292   -3.5917    0.0000 N   0  0  0  0  0  0  0  0  0  0  0  0
    4.0292   -4.4167    0.0000 N   0  0  0  0  0  0  0  0  0  0  0  0
    5.4500   -4.4167    0.0000 C   0  0  0  0  0  0  0  0  0  0  0  0
    4.7375   -3.1750    0.0000 C   0  0  0  0  0  0  0  0  0  0  0  0
    6.1667   -3.1792    0.0000 C   0  0  0  0  0  0  0  0  0  0  0  0
    4.7375   -4.8250    0.0000 C   0  0  0  0  0  0  0  0  0  0  0  0
    4.7375   -8.9417    0.0000 N   0  0  0  0  0  0  0  0  0  0  0  0
    4.7375   -8.1167    0.0000 C   0  0  0  0  0  0  0  0  0  0  0  0
    4.7375   -5.6500    0.0000 C   0  0  0  0  0  0  0  0  0  0  0  0
    6.1667   -2.3542    0.0000 O   0  0  0  0  0  0  0  0  0  0  0  0
    5.4500   -6.0542    0.0000 C   0  0  0  0  0  0  0  0  0  0  0  0
    4.0167   -6.0542    0.0000 C   0  0  0  0  0  0  0  0  0  0  0  0
    6.8792   -3.5917    0.0000 N   0  0  0  0  0  0  0  0  0  0  0  0
    4.7375   -7.2917    0.0000 C   0  0  0  0  0  0  0  0  0  0  0  0
    4.7375   -2.3500    0.0000 Cl  0  0  0  0  0  0  0  0  0  0  0  0
    5.4542   -6.8792    0.0000 C   0  0  0  0  0  0  0  0  0  0  0  0
    4.0167   -6.8792    0.0000 C   0  0  0  0  0  0  0  0  0  0  0  0
  2  5  2  0
  3  2  1  0
  4  1  2  0
  5  1  1  0
  6  1  1  0
  7  4  1  0
  8  9  3  0
  9 15  1  0
 10  7  1  0
 11  6  2  0
 12 10  1  0
 13 10  2  0
 14  6  1  0
 15 18  2  0
 16  5  1  0
 17 12  2  0
 18 13  1  0
  3  7  2  0
 17 15  1  0
M  END

> <chembl_id>
CHEMBL267142

> <chembl_pref_name>
None

$$$$

     RDKit          2D

  8  8  0  0  0  0  0  0  0  0999 V2000
    6.0750   -2.5667    0.0000 C   0  0  0  0  0  0  0  0  0  0  0  0
    5.3625   -2.9792    0.0000 N   0  0  0  0  0  0  0  0  0  0  0  0
    6.7917   -2.9792    0.0000 N   0  0  0  0  0  0  0  0  0  0  0  0
    5.3625   -3.8042    0.0000 C   0  0  0  0  0  0  0  0  0  0  0  0
    4.6542   -2.5667    0.0000 C   0  0  0  0  0  0  0  0  0  0  0  0
    6.0750   -1.7417    0.0000 C   0  0  0  0  0  0  0  0  0  0  0  0
    4.6542   -1.7417    0.0000 C   0  0  0  0  0  0  0  0  0  0  0  0
    5.3625   -1.3292    0.0000 C   0  0  0  0  0  0  0  0  0  0  0  0
  2  1  1  0
  3  1  2  0
  4  2  1  0
  5  2  1  0
  6  1  1  0
  7  8  1  0
  8  6  1  0
  7  5  1  0
M  END

> <chembl_id>
CHEMBL266980

> <chembl_pref_name>
None

$$$$

     RDKit          2D

 14 15  0  0  0  0  0  0  0  0999 V2000
    5.3625   -2.9792    0.0000 N   0  0  0  0  0  0  0  0  0  0  0  0
    6.0750   -2.5667    0.0000 C   0  0  0  0  0  0  0  0  0  0  0  0
    6.7917   -2.9792    0.0000 N   0  0  0  0  0  0  0  0  0  0  0  0
    4.6542   -2.5667    0.0000 C   0  0  0  0  0  0  0  0  0  0  0  0
    3.9375   -2.9792    0.0000 C   0  0  0  0  0  0  0  0  0  0  0  0
    6.0750   -1.7417    0.0000 C   0  0  0  0  0  0  0  0  0  0  0  0
    3.2250   -2.5667    0.0000 C   0  0  0  0  0  0  0  0  0  0  0  0
    5.3625   -1.3292    0.0000 C   0  0  0  0  0  0  0  0  0  0  0  0
    4.6542   -1.7417    0.0000 C   0  0  0  0  0  0  0  0  0  0  0  0
    3.2250   -1.7417    0.0000 C   0  0  0  0  0  0  0  0  0  0  0  0
    2.5042   -2.9875    0.0000 C   0  0  0  0  0  0  0  0  0  0  0  0
    1.8000   -2.5792    0.0000 C   0  0  0  0  0  0  0  0  0  0  0  0
    2.5042   -1.3375    0.0000 C   0  0  0  0  0  0  0  0  0  0  0  0
    1.7917   -1.7500    0.0000 C   0  0  0  0  0  0  0  0  0  0  0  0
  2  1  2  0
  3  2  1  0
  4  1  1  0
  5  4  1  0
  6  2  1  0
  7  5  1  0
  8  9  1  0
  9  4  1  0
 10  7  1  0
 11  7  1  0
 12 11  1  0
 13 10  1  0
 14 12  1  0
  6  8  1  0
 13 14  1  0
M  END

> <chembl_id>
CHEMBL269560

> <chembl_pref_name>
None

$$$$

     RDKit          2D

 14 15  0  0  0  0  0  0  0  0999 V2000
    5.3625   -2.9792    0.0000 N   0  0  0  0  0  0  0  0  0  0  0  0
    6.0750   -2.5667    0.0000 C   0  0  0  0  0  0  0  0  0  0  0  0
    6.7917   -2.9792    0.0000 N   0  0  0  0  0  0  0  0  0  0  0  0
    4.6542   -2.5667    0.0000 C   0  0  0  0  0  0  0  0  0  0  0  0
    3.9375   -2.9792    0.0000 C   0  0  0  0  0  0  0  0  0  0  0  0
    3.2250   -2.5667    0.0000 C   0  0  0  0  0  0  0  0  0  0  0  0
    6.0750   -1.7417    0.0000 C   0  0  0  0  0  0  0  0  0  0  0  0
    5.3625   -1.3292    0.0000 C   0  0  0  0  0  0  0  0  0  0  0  0
    4.6542   -1.7417    0.0000 C   0  0  0  0  0  0  0  0  0  0  0  0
    3.2250   -1.7417    0.0000 C   0  0  0  0  0  0  0  0  0  0  0  0
    2.5042   -2.9875    0.0000 C   0  0  0  0  0  0  0  0  0  0  0  0
    1.8000   -2.5792    0.0000 C   0  0  0  0  0  0  0  0  0  0  0  0
    2.5042   -1.3375    0.0000 C   0  0  0  0  0  0  0  0  0  0  0  0
    1.7917   -1.7500    0.0000 C   0  0  0  0  0  0  0  0  0  0  0  0
  2  1  2  0
  3  2  1  0
  4  1  1  0
  5  4  1  0
  6  5  1  0
  7  2  1  0
  8  9  1  0
  9  4  1  0
 10  6  2  0
 11  6  1  0
 12 11  2  0
 13 10  1  0
 14 12  1  0
  7  8  1  0
 13 14  2  0
M  END

> <chembl_id>
CHEMBL6875

> <chembl_pref_name>
None

$$$$

     RDKit          2D

 21 22  0  0  0  0  0  0  0  0999 V2000
    1.0250   -3.8417    0.0000 C   0  0  0  0  0  0  0  0  0  0  0  0
    1.5417   -4.1292    0.0000 C   0  0  0  0  0  0  0  0  0  0  0  0
    2.0625   -3.8375    0.0000 C   0  0  0  0  0  0  0  0  0  0  0  0
    0.5042   -4.1417    0.0000 C   0  0  0  0  0  0  0  0  0  0  0  0
    2.0667   -3.2292    0.0000 C   0  0  0  0  0  0  0  0  0  0  0  0
   -0.0125   -3.8417    0.0000 C   0  0  0  0  0  0  0  0  0  0  0  0
    2.5792   -4.1292    0.0000 C   0  0  0  0  0  0  0  0  0  0  0  0
    0.5042   -4.7500    0.0000 C   0  0  0  0  0  0  0  0  0  0  0  0
   -0.5333   -4.7500    0.0000 C   0  0  0  0  0  0  0  0  0  0  0  0
    3.1000   -3.2292    0.0000 C   0  0  0  0  0  0  0  0  0  0  0  0
   -0.5333   -4.1500    0.0000 C   0  0  0  0  0  0  0  0  0  0  0  0
    3.1042   -3.8375    0.0000 C   0  0  0  0  0  0  0  0  0  0  0  0
   -0.0125   -5.0500    0.0000 C   0  0  0  0  0  0  0  0  0  0  0  0
    2.5792   -2.9292    0.0000 C   0  0  0  0  0  0  0  0  0  0  0  0
    2.0667   -5.6375    0.0000 Br  0  0  0  0  0  0  0  0  0  0  0  0
   -1.0500   -5.0500    0.0000 O   0  0  0  0  0  0  0  0  0  0  0  0
    3.6167   -2.9292    0.0000 O   0  0  0  0  0  0  0  0  0  0  0  0
    1.5500   -4.7375    0.0000 C   0  0  0  0  0  0  0  0  0  0  0  0
    1.0167   -3.2417    0.0000 C   0  0  0  0  0  0  0  0  0  0  0  0
    2.0667   -5.0375    0.0000 C   0  0  0  0  0  0  0  0  0  0  0  0
    0.5917   -2.8167    0.0000 C   0  0  0  0  0  0  0  0  0  0  0  0
  2  1  1  0
  3  2  1  0
  4  1  1  0
  5  3  2  0
  6  4  2  0
  7  3  1  0
  8  4  1  0
  9 13  1  0
 10 12  1  0
 11  6  1  0
 12  7  2  0
 13  8  2  0
 14  5  1  0
 15 20  1  0
 16  9  1  0
 17 10  1  0
 18  2  1  0
 19  1  1  0
 20 18  1  0
 21 19  1  0
  9 11  2  0
 14 10  2  0
M  END

> <chembl_id>
CHEMBL6876

> <chembl_pref_name>
None

$$$$

     RDKit          2D

 23 25  0  0  0  0  0  0  0  0999 V2000
    4.2667   -3.0667    0.0000 C   0  0  0  0  0  0  0  0  0  0  0  0
    4.9750   -3.4875    0.0000 C   0  0  0  0  0  0  0  0  0  0  0  0
    4.9667   -4.3167    0.0000 C   0  0  0  0  0  0  0  0  0  0  0  0
    4.2667   -2.2417    0.0000 C   0  0  0  0  0  0  0  0  0  0  0  0
    6.4042   -3.5000    0.0000 C   0  0  0  0  0  0  0  0  0  0  0  0
    7.1250   -2.2667    0.0000 C   0  0  0  0  0  0  0  0  0  0  0  0
    4.2542   -4.7167    0.0000 O   0  0  0  0  0  0  0  0  0  0  0  0
    6.4000   -4.3167    0.0000 C   0  0  0  0  0  0  0  0  0  0  0  0
    3.5375   -4.3042    0.0000 C   0  0  0  0  0  0  0  0  0  0  0  0
    5.6917   -3.0792    0.0000 C   0  0  0  0  0  0  0  0  0  0  0  0
    3.5417   -3.4792    0.0000 C   0  0  0  0  0  0  0  0  0  0  0  0
    7.1167   -3.0917    0.0000 C   0  0  0  0  0  0  0  0  0  0  0  0
    5.6792   -4.7292    0.0000 C   0  0  0  0  0  0  0  0  0  0  0  0
    7.1042   -4.7417    0.0000 N   0  0  0  0  0  0  0  0  0  0  0  0
    2.8167   -4.7250    0.0000 O   0  0  0  0  0  0  0  0  0  0  0  0
    5.0917   -2.2542    0.0000 F   0  0  0  0  0  0  0  0  0  0  0  0
    3.4417   -2.2417    0.0000 F   0  0  0  0  0  0  0  0  0  0  0  0
    4.2792   -1.4250    0.0000 F   0  0  0  0  0  0  0  0  0  0  0  0
    7.1292   -1.5125    0.0000 F   0  0  0  0  0  0  0  0  0  0  0  0
    7.7917   -1.7250    0.0000 F   0  0  0  0  0  0  0  0  0  0  0  0
    6.4542   -1.7167    0.0000 F   0  0  0  0  0  0  0  0  0  0  0  0
    7.8292   -4.3292    0.0000 C   0  0  0  0  0  0  0  0  0  0  0  0
    7.8292   -3.5042    0.0000 C   0  0  0  0  0  0  0  0  0  0  0  0
  2  1  1  0
  3  2  2  0
  4  1  1  0
  5 10  2  0
  6 12  1  0
  7  9  1  0
  8  5  1  0
  9 11  1  0
 10  2  1  0
 11  1  2  0
 12  5  1  0
 13  3  1  0
 14  8  1  0
 15  9  2  0
 16  4  1  0
 17  4  1  0
 18  4  1  0
 19  6  1  0
 20  6  1  0
 21  6  1  0
 22 23  1  0
 23 12  1  0
  3  7  1  0
 13  8  2  0
 14 22  1  0
M  END

> <chembl_id>
CHEMBL267270

> <chembl_pref_name>
None

$$$$

     RDKit          2D

 18 19  0  0  0  0  0  0  0  0999 V2000
    5.4500   -3.5917    0.0000 C   0  0  0  0  0  0  0  0  0  0  0  0
    5.4500   -4.4167    0.0000 C   0  0  0  0  0  0  0  0  0  0  0  0
    4.0292   -4.4167    0.0000 N   0  0  0  0  0  0  0  0  0  0  0  0
    4.7375   -4.8250    0.0000 C   0  0  0  0  0  0  0  0  0  0  0  0
    4.0292   -3.5917    0.0000 N   0  0  0  0  0  0  0  0  0  0  0  0
    4.7375   -3.1750    0.0000 C   0  0  0  0  0  0  0  0  0  0  0  0
    6.1667   -3.1792    0.0000 C   0  0  0  0  0  0  0  0  0  0  0  0
    4.7375   -5.6500    0.0000 C   0  0  0  0  0  0  0  0  0  0  0  0
    6.1667   -2.3542    0.0000 O   0  0  0  0  0  0  0  0  0  0  0  0
    5.4542   -6.0625    0.0000 C   0  0  0  0  0  0  0  0  0  0  0  0
    4.0292   -6.0625    0.0000 C   0  0  0  0  0  0  0  0  0  0  0  0
    6.8792   -3.5917    0.0000 N   0  0  0  0  0  0  0  0  0  0  0  0
    4.7375   -2.3500    0.0000 Cl  0  0  0  0  0  0  0  0  0  0  0  0
    4.7417   -7.3000    0.0000 C   0  0  0  0  0  0  0  0  0  0  0  0
    6.1667   -4.8292    0.0000 C   0  0  0  0  0  0  0  0  0  0  0  0
    5.4542   -6.8875    0.0000 C   0  0  0  0  0  0  0  0  0  0  0  0
    4.0292   -6.8917    0.0000 C   0  0  0  0  0  0  0  0  0  0  0  0
    4.7417   -8.1250    0.0000 Cl  0  0  0  0  0  0  0  0  0  0  0  0
  2  1  2  0
  3  5  1  0
  4  2  1  0
  5  6  2  0
  6  1  1  0
  7  1  1  0
  8  4  1  0
  9  7  2  0
 10  8  1  0
 11  8  2  0
 12  7  1  0
 13  6  1  0
 14 17  2  0
 15  2  1  0
 16 10  2  0
 17 11  1  0
 18 14  1  0
  3  4  2  0
 14 16  1  0
M  END

> <chembl_id>
CHEMBL6805

> <chembl_pref_name>
None

$$$$

     RDKit          2D

 17 18  0  0  0  0  0  0  0  0999 V2000
    5.4500   -3.5917    0.0000 C   0  0  0  0  0  0  0  0  0  0  0  0
    4.0292   -3.5917    0.0000 N   0  0  0  0  0  0  0  0  0  0  0  0
    4.0292   -4.4167    0.0000 N   0  0  0  0  0  0  0  0  0  0  0  0
    5.4500   -4.4167    0.0000 C   0  0  0  0  0  0  0  0  0  0  0  0
    4.7375   -3.1750    0.0000 C   0  0  0  0  0  0  0  0  0  0  0  0
    6.1667   -3.1792    0.0000 C   0  0  0  0  0  0  0  0  0  0  0  0
    4.7375   -4.8250    0.0000 C   0  0  0  0  0  0  0  0  0  0  0  0
    6.1667   -2.3542    0.0000 O   0  0  0  0  0  0  0  0  0  0  0  0
    4.7417   -7.3000    0.0000 N   0  0  0  0  0  0  0  0  0  0  0  0
    4.7375   -5.6500    0.0000 C   0  0  0  0  0  0  0  0  0  0  0  0
    4.7375   -2.3500    0.0000 S   0  0  0  0  0  0  0  0  0  0  0  0
    6.8792   -3.5917    0.0000 N   0  0  0  0  0  0  0  0  0  0  0  0
    4.0292   -6.8917    0.0000 C   0  0  0  0  0  0  0  0  0  0  0  0
    5.4542   -6.8875    0.0000 C   0  0  0  0  0  0  0  0  0  0  0  0
    5.4542   -6.0625    0.0000 C   0  0  0  0  0  0  0  0  0  0  0  0
    4.0292   -6.0625    0.0000 C   0  0  0  0  0  0  0  0  0  0  0  0
    5.4542   -1.9375    0.0000 C   0  0  0  0  0  0  0  0  0  0  0  0
  2  5  2  0
  3  2  1  0
  4  1  2  0
  5  1  1  0
  6  1  1  0
  7  4  1  0
  8  6  2  0
  9 13  2  0
 10  7  1  0
 11  5  1  0
 12  6  1  0
 13 16  1  0
 14 15  2  0
 15 10  1  0
 16 10  2  0
 17 11  1  0
  3  7  2  0
  9 14  1  0
M  END

> <chembl_id>
CHEMBL6734

> <chembl_pref_name>
None

$$$$

     RDKit          2D

 27 29  0  0  0  0  0  0  0  0999 V2000
    5.4042    1.4625    0.0000 N   0  0  0  0  0  0  0  0  0  0  0  0
    5.1542    0.9208    0.0000 C   0  0  0  0  0  0  0  0  0  0  0  0
   -2.3958    0.5333    0.0000 N   0  0  0  0  0  0  0  0  0  0  0  0
    5.5917    0.5083    0.0000 O   0  0  0  0  0  0  0  0  0  0  0  0
   -1.8750    0.2333    0.0000 O   0  0  0  0  0  0  0  0  0  0  0  0
   -1.3625    1.1333    0.0000 C   0  0  0  0  0  0  0  0  0  0  0  0
   -1.3583    0.5333    0.0000 C   0  0  0  0  0  0  0  0  0  0  0  0
    6.0042    1.3958    0.0000 C   0  0  0  0  0  0  0  0  0  0  0  0
   -2.4000    1.1333    0.0000 C   0  0  0  0  0  0  0  0  0  0  0  0
    4.5667    0.8083    0.0000 C   0  0  0  0  0  0  0  0  0  0  0  0
    6.1167    0.8000    0.0000 C   0  0  0  0  0  0  0  0  0  0  0  0
    4.3750    0.2375    0.0000 C   0  0  0  0  0  0  0  0  0  0  0  0
    4.1750    1.2583    0.0000 C   0  0  0  0  0  0  0  0  0  0  0  0
    3.3917    0.5750    0.0000 C   0  0  0  0  0  0  0  0  0  0  0  0
    3.5875    1.1458    0.0000 C   0  0  0  0  0  0  0  0  0  0  0  0
    3.7875    0.1250    0.0000 C   0  0  0  0  0  0  0  0  0  0  0  0
    2.7917    0.5750    0.0000 O   0  0  0  0  0  0  0  0  0  0  0  0
   -0.8375    0.2458    0.0000 C   0  0  0  0  0  0  0  0  0  0  0  0
    6.4125    1.8333    0.0000 C   0  0  0  0  0  0  0  0  0  0  0  0
    6.6042    1.3958    0.0000 C   0  0  0  0  0  0  0  0  0  0  0  0
   -2.8333    1.5500    0.0000 C   0  0  0  0  0  0  0  0  0  0  0  0
    2.2750    0.2708    0.0000 C   0  0  0  0  0  0  0  0  0  0  0  0
   -0.3208    0.5458    0.0000 C   0  0  0  0  0  0  0  0  0  0  0  0
    1.7542    0.5625    0.0000 C   0  0  0  0  0  0  0  0  0  0  0  0
    0.2000    0.2500    0.0000 C   0  0  0  0  0  0  0  0  0  0  0  0
    0.7167    0.5583    0.0000 C   0  0  0  0  0  0  0  0  0  0  0  0
    1.2417    0.2583    0.0000 C   0  0  0  0  0  0  0  0  0  0  0  0
  2  1  2  0
  3  5  1  0
  4  2  1  0
  5  7  1  0
  6  7  2  0
  7 18  1  0
  8  1  1  0
  9  6  1  0
 10  2  1  0
 11  8  1  0
 12 10  2  0
 13 10  1  0
 14 15  1  0
 15 13  2  0
 16 12  1  0
 17 14  1  0
 18 23  1  0
 19  8  1  0
 20  8  1  0
 21  9  1  0
 22 17  1  0
 23 25  1  0
 24 22  1  0
 25 26  1  0
 26 27  1  0
 27 24  1  0
  4 11  1  0
 16 14  2  0
  9  3  2  0
M  END

> <chembl_id>
CHEMBL6824

> <chembl_pref_name>
None

$$$$

     RDKit          2D

 30 32  0  0  0  0  0  0  0  0999 V2000
   -1.0333   -1.7500    0.0000 C   0  0  0  0  0  0  0  0  0  0  0  0
   -1.0333   -0.9250    0.0000 C   0  0  0  0  0  0  0  0  0  0  0  0
   -1.7458   -2.1667    0.0000 S   0  0  0  0  0  0  0  0  0  0  0  0
    1.8250   -0.9042    0.0000 C   0  0  0  0  0  0  0  0  0  0  0  0
   -1.7458   -0.5125    0.0000 C   0  0  0  0  0  0  0  0  0  0  0  0
    0.3917   -0.9167    0.0000 C   0  0  0  0  0  0  0  0  0  0  0  0
   -0.3208   -0.5042    0.0000 C   0  0  0  0  0  0  0  0  0  0  0  0
    1.1042   -0.5000    0.0000 N   0  0  0  0  0  0  0  0  0  0  0  0
   -2.4583   -1.7542    0.0000 C   0  0  0  0  0  0  0  0  0  0  0  0
   -0.3125   -2.1625    0.0000 C   0  0  0  0  0  0  0  0  0  0  0  0
    5.4042   -2.1250    0.0000 C   0  0  0  0  0  0  0  0  0  0  0  0
    0.4000   -1.7417    0.0000 C   0  0  0  0  0  0  0  0  0  0  0  0
   -2.4583   -0.9250    0.0000 C   0  0  0  0  0  0  0  0  0  0  0  0
    2.5375   -0.4917    0.0000 N   0  0  0  0  0  0  0  0  0  0  0  0
    1.8292   -1.7292    0.0000 S   0  0  0  0  0  0  0  0  0  0  0  0
    4.6792   -1.7167    0.0000 C   0  0  0  0  0  0  0  0  0  0  0  0
    6.1167   -1.7042    0.0000 O   0  0  0  0  0  0  0  0  0  0  0  0
    3.9667   -2.1292    0.0000 C   0  0  0  0  0  0  0  0  0  0  0  0
    4.6750   -0.8875    0.0000 C   0  0  0  0  0  0  0  0  0  0  0  0
    3.2542   -0.9000    0.0000 C   0  0  0  0  0  0  0  0  0  0  0  0
    5.4042   -2.9500    0.0000 O   0  0  0  0  0  0  0  0  0  0  0  0
    3.9542   -0.4792    0.0000 C   0  0  0  0  0  0  0  0  0  0  0  0
    3.2542   -1.7250    0.0000 C   0  0  0  0  0  0  0  0  0  0  0  0
   -1.1625    0.0750    0.0000 C   0  0  0  0  0  0  0  0  0  0  0  0
   -2.3333    0.0750    0.0000 C   0  0  0  0  0  0  0  0  0  0  0  0
   -3.1750   -1.3417    0.0000 C   0  0  0  0  0  0  0  0  0  0  0  0
   -3.1750   -2.1667    0.0000 C   0  0  0  0  0  0  0  0  0  0  0  0
    1.1167   -2.1542    0.0000 C   0  0  0  0  0  0  0  0  0  0  0  0
    4.7000   -3.3667    0.0000 C   0  0  0  0  0  0  0  0  0  0  0  0
    4.7042   -4.1917    0.0000 C   0  0  0  0  0  0  0  0  0  0  0  0
  2  1  2  0
  3  1  1  0
  4  8  2  0
  5  2  1  0
  6 12  1  0
  7  2  1  0
  8  6  1  0
  9  3  1  0
 10  1  1  0
 11 16  1  0
 12 10  2  0
 13  9  1  0
 14  4  1  0
 15  4  1  0
 16 18  2  0
 17 11  2  0
 18 23  1  0
 19 22  2  0
 20 14  1  0
 21 11  1  0
 22 20  1  0
 23 20  2  0
 24  5  1  0
 25  5  1  0
 26  9  1  0
 27  9  1  0
 28 12  1  0
 29 21  1  0
 30 29  1  0
  6  7  2  0
  5 13  1  0
 19 16  1  0
M  END

> <chembl_id>
CHEMBL6825

> <chembl_pref_name>
None

$$$$

     RDKit          2D

 70 70  0  0  1  0  0  0  0  0999 V2000
    9.3375   -4.1750    0.0000 N   0  0  0  0  0  0  0  0  0  0  0  0
    8.6250   -3.7542    0.0000 C   0  0  0  0  0  0  0  0  0  0  0  0
   10.2792   -3.0375    0.0000 C   0  0  0  0  0  0  0  0  0  0  0  0
   12.0292   -1.7375    0.0000 C   0  0  0  0  0  0  0  0  0  0  0  0
   -0.6875   -4.0875    0.0000 C   0  0  0  0  0  0  0  0  0  0  0  0
    0.0375   -3.6792    0.0000 C   0  0  0  0  0  0  0  0  0  0  0  0
   12.4000   -1.0000    0.0000 O   0  0  0  0  0  0  0  0  0  0  0  0
    6.4750   -4.1500    0.0000 C   0  0  0  0  0  0  0  0  0  0  0  0
   -1.3958   -3.6667    0.0000 N   0  0  0  0  0  0  0  0  0  0  0  0
    7.1917   -3.7417    0.0000 N   0  0  0  0  0  0  0  0  0  0  0  0
    5.0417   -4.1292    0.0000 N   0  0  0  0  0  0  0  0  0  0  0  0
    7.9042   -4.1667    0.0000 C   0  0  0  0  0  0  0  0  0  0  0  0
   13.6042   -0.2167    0.0000 C   0  0  0  0  0  0  0  0  0  0  0  0
   10.0917   -3.8417    0.0000 C   0  0  0  0  0  0  0  0  0  0  0  0
   -2.1208   -4.0667    0.0000 C   0  0  0  0  0  0  0  0  0  0  0  0
    4.3292   -3.7167    0.0000 C   0  0  0  0  0  0  0  0  0  0  0  0
   11.0625   -2.7917    0.0000 N   0  0  0  0  0  0  0  0  0  0  0  0
    2.1792   -4.1125    0.0000 C   0  0  0  0  0  0  0  0  0  0  0  0
   13.2250   -0.9542    0.0000 C   0  0  0  0  0  0  0  0  0  0  0  0
    0.7417   -4.0917    0.0000 N   0  0  0  0  0  0  0  0  0  0  0  0
    2.8917   -3.7042    0.0000 N   0  0  0  0  0  0  0  0  0  0  0  0
    5.7625   -3.7292    0.0000 C   0  0  0  0  0  0  0  0  0  0  0  0
    3.6125   -4.1250    0.0000 C   0  0  0  0  0  0  0  0  0  0  0  0
   11.2417   -1.9875    0.0000 N   0  0  0  0  0  0  0  0  0  0  0  0
   -2.8333   -3.6542    0.0000 C   0  0  0  0  0  0  0  0  0  0  0  0
    3.6042   -4.9500    0.0000 C   0  0  0  0  0  0  0  0  0  0  0  0
   -2.8250   -2.8292    0.0000 C   0  0  0  0  0  0  0  0  0  0  0  0
   -3.5500   -4.0625    0.0000 N   0  0  0  0  0  0  0  0  0  0  0  0
    1.4625   -3.6917    0.0000 C   0  0  0  0  0  0  0  0  0  0  0  0
    4.3167   -5.3667    0.0000 C   0  0  0  0  0  0  0  0  0  0  0  0
   -2.1083   -2.4167    0.0000 C   0  0  0  0  0  0  0  0  0  0  0  0
   -3.5583   -4.8875    0.0000 C   0  0  0  0  0  0  0  0  0  0  0  0
    8.6292   -2.9292    0.0000 O   0  0  0  0  0  0  0  0  0  0  0  0
    9.6667   -2.4792    0.0000 O   0  0  0  0  0  0  0  0  0  0  0  0
    2.1917   -1.6292    0.0000 C   0  0  0  0  0  0  0  0  0  0  0  0
   12.4750   -2.4292    0.0000 O   0  0  0  0  0  0  0  0  0  0  0  0
    0.0417   -2.8500    0.0000 O   0  0  0  0  0  0  0  0  0  0  0  0
    6.4667   -4.9750    0.0000 O   0  0  0  0  0  0  0  0  0  0  0  0
   -2.1250   -4.9000    0.0000 O   0  0  0  0  0  0  0  0  0  0  0  0
    4.3375   -2.8917    0.0000 O   0  0  0  0  0  0  0  0  0  0  0  0
    2.1667   -4.9375    0.0000 O   0  0  0  0  0  0  0  0  0  0  0  0
   -0.6958   -4.9125    0.0000 C   0  0  0  0  0  0  0  0  0  0  0  0
   -2.1000   -1.5917    0.0000 O   0  0  0  0  0  0  0  0  0  0  0  0
    4.3042   -6.2000    0.0000 O   0  0  0  0  0  0  0  0  0  0  0  0
   -4.2833   -5.2917    0.0000 O   0  0  0  0  0  0  0  0  0  0  0  0
    2.9167   -1.2250    0.0000 O   0  0  0  0  0  0  0  0  0  0  0  0
   14.2125   -0.7750    0.0000 Cl  0  0  0  0  0  0  0  0  0  0  0  0
   14.4250   -0.1792    0.0000 Cl  0  0  0  0  0  0  0  0  0  0  0  0
   13.1542    0.4708    0.0000 Cl  0  0  0  0  0  0  0  0  0  0  0  0
    1.4750   -2.8667    0.0000 C   0  0  0  0  0  0  0  0  0  0  0  0
    7.9000   -4.9917    0.0000 C   0  0  0  0  0  0  0  0  0  0  0  0
    9.4167   -4.9917    0.0000 C   0  0  0  0  0  0  0  0  0  0  0  0
   13.6750   -1.6500    0.0000 Cl  0  0  0  0  0  0  0  0  0  0  0  0
    5.7667   -2.9042    0.0000 C   0  0  0  0  0  0  0  0  0  0  0  0
    2.1917   -2.4542    0.0000 C   0  0  0  0  0  0  0  0  0  0  0  0
    5.0375   -4.9625    0.0000 O   0  0  0  0  0  0  0  0  0  0  0  0
   -1.3958   -2.8375    0.0000 O   0  0  0  0  0  0  0  0  0  0  0  0
    1.4875   -1.2125    0.0000 O   0  0  0  0  0  0  0  0  0  0  0  0
   10.6417   -4.4667    0.0000 C   0  0  0  0  0  0  0  0  0  0  0  0
    0.0167   -5.3292    0.0000 O   0  0  0  0  0  0  0  0  0  0  0  0
   10.6292   -1.4292    0.0000 C   0  0  0  0  0  0  0  0  0  0  0  0
   10.2250   -5.1792    0.0000 C   0  0  0  0  0  0  0  0  0  0  0  0
   -2.8458   -5.3042    0.0000 C   0  0  0  0  0  0  0  0  0  0  0  0
   -1.4208   -5.3167    0.0000 C   0  0  0  0  0  0  0  0  0  0  0  0
    8.6125   -5.4042    0.0000 C   0  0  0  0  0  0  0  0  0  0  0  0
    7.1792   -5.3917    0.0000 C   0  0  0  0  0  0  0  0  0  0  0  0
    5.0542   -2.4792    0.0000 C   0  0  0  0  0  0  0  0  0  0  0  0
    6.4917   -2.4917    0.0000 C   0  0  0  0  0  0  0  0  0  0  0  0
   10.8125   -0.6167    0.0000 C   0  0  0  0  0  0  0  0  0  0  0  0
   10.2042   -0.0667    0.0000 C   0  0  0  0  0  0  0  0  0  0  0  0
  2  1  1  0
 14  3  1  1
  4 24  1  0
  5  6  1  0
  6 20  1  0
  7  4  1  0
  8 10  1  0
  5  9  1  6
 12 10  1  6
 22 11  1  1
 12  2  1  0
 13 19  1  0
 14  1  1  0
 15  9  1  0
 16 11  1  0
 17  3  1  0
 18 21  1  0
 19  7  1  0
 29 20  1  1
 23 21  1  6
 22  8  1  0
 23 16  1  0
 24 17  1  0
 25 15  1  0
 23 26  1  0
 25 27  1  1
 28 25  1  0
 29 18  1  0
 30 26  1  0
 31 27  1  0
 32 28  1  0
 33  2  2  0
 34  3  2  0
 35 55  1  0
 36  4  2  0
 37  6  2  0
 38  8  2  0
 39 15  2  0
 40 16  2  0
 41 18  2  0
  5 42  1  0
 43 31  2  0
 44 30  2  0
 45 32  2  0
 46 35  2  0
 47 13  1  0
 48 13  1  0
 49 13  1  0
 29 50  1  0
 12 51  1  0
 52  1  1  0
 53 19  1  0
 22 54  1  0
 55 50  1  0
 56 30  1  0
 57 31  1  0
 58 35  1  0
 14 59  1  0
 42 60  1  6
 61 24  1  0
 62 52  1  0
 63 32  1  0
 64 42  1  0
 65 51  1  0
 66 51  1  0
 67 54  1  0
 68 54  1  0
 69 61  1  0
 70 69  1  0
 59 62  1  0
M  END

> <chembl_id>
CHEMBL216755

> <chembl_pref_name>
None

$$$$

     RDKit          2D

 69 69  0  0  1  0  0  0  0  0999 V2000
    9.4500   -4.5625    0.0000 N   0  0  0  0  0  0  0  0  0  0  0  0
    8.7375   -4.1417    0.0000 C   0  0  0  0  0  0  0  0  0  0  0  0
   10.3917   -3.4250    0.0000 C   0  0  0  0  0  0  0  0  0  0  0  0
   -0.5750   -4.4750    0.0000 C   0  0  0  0  0  0  0  0  0  0  0  0
    0.1500   -4.0667    0.0000 C   0  0  0  0  0  0  0  0  0  0  0  0
    6.5875   -4.5375    0.0000 C   0  0  0  0  0  0  0  0  0  0  0  0
   -1.2875   -4.0500    0.0000 N   0  0  0  0  0  0  0  0  0  0  0  0
    7.3042   -4.1292    0.0000 N   0  0  0  0  0  0  0  0  0  0  0  0
    5.1542   -4.5250    0.0000 N   0  0  0  0  0  0  0  0  0  0  0  0
    8.0167   -4.5542    0.0000 C   0  0  0  0  0  0  0  0  0  0  0  0
   10.2042   -4.2292    0.0000 C   0  0  0  0  0  0  0  0  0  0  0  0
   -2.0083   -4.4542    0.0000 C   0  0  0  0  0  0  0  0  0  0  0  0
    4.4417   -4.1042    0.0000 C   0  0  0  0  0  0  0  0  0  0  0  0
   12.1417   -2.1250    0.0000 C   0  0  0  0  0  0  0  0  0  0  0  0
   11.1750   -3.1792    0.0000 N   0  0  0  0  0  0  0  0  0  0  0  0
    2.2917   -4.5000    0.0000 C   0  0  0  0  0  0  0  0  0  0  0  0
    0.8542   -4.4792    0.0000 N   0  0  0  0  0  0  0  0  0  0  0  0
    3.0042   -4.0917    0.0000 N   0  0  0  0  0  0  0  0  0  0  0  0
    5.8750   -4.1167    0.0000 C   0  0  0  0  0  0  0  0  0  0  0  0
    3.7250   -4.5042    0.0000 C   0  0  0  0  0  0  0  0  0  0  0  0
   -2.7208   -4.0417    0.0000 C   0  0  0  0  0  0  0  0  0  0  0  0
   11.3542   -2.3750    0.0000 N   0  0  0  0  0  0  0  0  0  0  0  0
   13.7250   -0.6167    0.0000 C   0  0  0  0  0  0  0  0  0  0  0  0
    3.7167   -5.3375    0.0000 C   0  0  0  0  0  0  0  0  0  0  0  0
   -2.7125   -3.2167    0.0000 C   0  0  0  0  0  0  0  0  0  0  0  0
   -3.4375   -4.4417    0.0000 N   0  0  0  0  0  0  0  0  0  0  0  0
    1.5750   -4.0792    0.0000 C   0  0  0  0  0  0  0  0  0  0  0  0
   -1.9958   -2.8042    0.0000 C   0  0  0  0  0  0  0  0  0  0  0  0
    4.4292   -5.7542    0.0000 C   0  0  0  0  0  0  0  0  0  0  0  0
   -3.4458   -5.2750    0.0000 C   0  0  0  0  0  0  0  0  0  0  0  0
   12.5167   -1.3875    0.0000 O   0  0  0  0  0  0  0  0  0  0  0  0
    8.7417   -3.3167    0.0000 O   0  0  0  0  0  0  0  0  0  0  0  0
    9.7792   -2.8667    0.0000 O   0  0  0  0  0  0  0  0  0  0  0  0
    2.3125   -2.0167    0.0000 C   0  0  0  0  0  0  0  0  0  0  0  0
    0.1542   -3.2375    0.0000 O   0  0  0  0  0  0  0  0  0  0  0  0
    6.5792   -5.3625    0.0000 O   0  0  0  0  0  0  0  0  0  0  0  0
   12.5792   -2.8167    0.0000 O   0  0  0  0  0  0  0  0  0  0  0  0
    4.4500   -3.2792    0.0000 O   0  0  0  0  0  0  0  0  0  0  0  0
   -2.0125   -5.2875    0.0000 O   0  0  0  0  0  0  0  0  0  0  0  0
    2.2792   -5.3250    0.0000 O   0  0  0  0  0  0  0  0  0  0  0  0
   -0.5833   -5.3000    0.0000 C   0  0  0  0  0  0  0  0  0  0  0  0
   -1.9875   -1.9792    0.0000 O   0  0  0  0  0  0  0  0  0  0  0  0
    4.4167   -6.5875    0.0000 O   0  0  0  0  0  0  0  0  0  0  0  0
   -4.1625   -5.6792    0.0000 O   0  0  0  0  0  0  0  0  0  0  0  0
   13.3417   -1.3500    0.0000 C   0  0  0  0  0  0  0  0  0  0  0  0
    3.0292   -1.6125    0.0000 O   0  0  0  0  0  0  0  0  0  0  0  0
    1.5875   -3.2542    0.0000 C   0  0  0  0  0  0  0  0  0  0  0  0
   13.2792    0.0833    0.0000 Cl  0  0  0  0  0  0  0  0  0  0  0  0
   14.3292   -1.1750    0.0000 Cl  0  0  0  0  0  0  0  0  0  0  0  0
   14.5417   -0.5792    0.0000 Cl  0  0  0  0  0  0  0  0  0  0  0  0
    8.0125   -5.3792    0.0000 C   0  0  0  0  0  0  0  0  0  0  0  0
    9.5292   -5.3792    0.0000 C   0  0  0  0  0  0  0  0  0  0  0  0
    5.8792   -3.2917    0.0000 C   0  0  0  0  0  0  0  0  0  0  0  0
    2.3042   -2.8417    0.0000 C   0  0  0  0  0  0  0  0  0  0  0  0
   -1.2833   -3.2250    0.0000 O   0  0  0  0  0  0  0  0  0  0  0  0
    5.1500   -5.3542    0.0000 O   0  0  0  0  0  0  0  0  0  0  0  0
    1.6000   -1.6000    0.0000 O   0  0  0  0  0  0  0  0  0  0  0  0
   10.7542   -4.8542    0.0000 C   0  0  0  0  0  0  0  0  0  0  0  0
    0.1292   -5.7167    0.0000 O   0  0  0  0  0  0  0  0  0  0  0  0
   10.7417   -1.8167    0.0000 C   0  0  0  0  0  0  0  0  0  0  0  0
   10.3292   -5.5667    0.0000 C   0  0  0  0  0  0  0  0  0  0  0  0
   -2.7333   -5.6917    0.0000 C   0  0  0  0  0  0  0  0  0  0  0  0
   -1.3083   -5.7042    0.0000 C   0  0  0  0  0  0  0  0  0  0  0  0
    8.7250   -5.7917    0.0000 C   0  0  0  0  0  0  0  0  0  0  0  0
    7.2917   -5.7792    0.0000 C   0  0  0  0  0  0  0  0  0  0  0  0
    5.1667   -2.8667    0.0000 C   0  0  0  0  0  0  0  0  0  0  0  0
    6.6042   -2.8792    0.0000 C   0  0  0  0  0  0  0  0  0  0  0  0
   10.9250   -1.0042    0.0000 C   0  0  0  0  0  0  0  0  0  0  0  0
   10.3167   -0.4542    0.0000 C   0  0  0  0  0  0  0  0  0  0  0  0
  2  1  1  0
 11  3  1  1
  4  5  1  0
  5 17  1  0
  6  8  1  0
  4  7  1  6
 10  8  1  6
 19  9  1  1
 10  2  1  0
 11  1  1  0
 12  7  1  0
 13  9  1  0
 14 22  1  0
 15  3  1  0
 16 18  1  0
 27 17  1  1
 20 18  1  6
 19  6  1  0
 20 13  1  0
 21 12  1  0
 22 15  1  0
 23 45  1  0
 20 24  1  0
 21 25  1  1
 26 21  1  0
 27 16  1  0
 28 25  1  0
 29 24  1  0
 30 26  1  0
 31 14  1  0
 32  2  2  0
 33  3  2  0
 34 54  1  0
 35  5  2  0
 36  6  2  0
 37 14  2  0
 38 13  2  0
 39 12  2  0
 40 16  2  0
  4 41  1  0
 42 28  2  0
 43 29  2  0
 44 30  2  0
 45 31  1  0
 46 34  2  0
 27 47  1  0
 48 23  1  0
 49 23  1  0
 50 23  1  0
 10 51  1  0
 52  1  1  0
 19 53  1  0
 54 47  1  0
 55 28  1  0
 56 29  1  0
 57 34  1  0
 11 58  1  0
 41 59  1  6
 60 22  1  0
 61 52  1  0
 62 30  1  0
 63 41  1  0
 64 51  1  0
 65 51  1  0
 66 53  1  0
 67 53  1  0
 68 60  1  0
 69 68  1  0
 58 61  1  0
M  END

> <chembl_id>
CHEMBL6751

> <chembl_pref_name>
None

$$$$

     RDKit          2D

 65 65  0  0  1  0  0  0  0  0999 V2000
   10.1417   -4.5625    0.0000 N   0  0  0  0  0  0  0  0  0  0  0  0
    9.4375   -4.1417    0.0000 C   0  0  0  0  0  0  0  0  0  0  0  0
   11.0917   -3.4250    0.0000 C   0  0  0  0  0  0  0  0  0  0  0  0
    0.1250   -4.4750    0.0000 C   0  0  0  0  0  0  0  0  0  0  0  0
    0.8500   -4.0667    0.0000 C   0  0  0  0  0  0  0  0  0  0  0  0
    7.2875   -4.5375    0.0000 C   0  0  0  0  0  0  0  0  0  0  0  0
   -0.5833   -4.0542    0.0000 N   0  0  0  0  0  0  0  0  0  0  0  0
    8.0042   -4.1292    0.0000 N   0  0  0  0  0  0  0  0  0  0  0  0
    5.8542   -4.5250    0.0000 N   0  0  0  0  0  0  0  0  0  0  0  0
    8.7167   -4.5542    0.0000 C   0  0  0  0  0  0  0  0  0  0  0  0
   10.9042   -4.2292    0.0000 C   0  0  0  0  0  0  0  0  0  0  0  0
   -1.3083   -4.4542    0.0000 C   0  0  0  0  0  0  0  0  0  0  0  0
    5.1417   -4.1042    0.0000 C   0  0  0  0  0  0  0  0  0  0  0  0
   11.8750   -3.1792    0.0000 N   0  0  0  0  0  0  0  0  0  0  0  0
    2.9917   -4.5000    0.0000 C   0  0  0  0  0  0  0  0  0  0  0  0
    1.5542   -4.4792    0.0000 N   0  0  0  0  0  0  0  0  0  0  0  0
    3.7042   -4.0917    0.0000 N   0  0  0  0  0  0  0  0  0  0  0  0
    6.5750   -4.1167    0.0000 C   0  0  0  0  0  0  0  0  0  0  0  0
    4.4250   -4.5042    0.0000 C   0  0  0  0  0  0  0  0  0  0  0  0
   12.8417   -2.1250    0.0000 C   0  0  0  0  0  0  0  0  0  0  0  0
   -2.0208   -4.0417    0.0000 C   0  0  0  0  0  0  0  0  0  0  0  0
   12.0542   -2.3750    0.0000 N   0  0  0  0  0  0  0  0  0  0  0  0
    4.4167   -5.3375    0.0000 C   0  0  0  0  0  0  0  0  0  0  0  0
   -2.0125   -3.2167    0.0000 C   0  0  0  0  0  0  0  0  0  0  0  0
   -2.7375   -4.4417    0.0000 N   0  0  0  0  0  0  0  0  0  0  0  0
    2.2750   -4.0792    0.0000 C   0  0  0  0  0  0  0  0  0  0  0  0
    5.1292   -5.7542    0.0000 C   0  0  0  0  0  0  0  0  0  0  0  0
   -1.2958   -2.8042    0.0000 C   0  0  0  0  0  0  0  0  0  0  0  0
   -2.7458   -5.2750    0.0000 C   0  0  0  0  0  0  0  0  0  0  0  0
    9.4417   -3.3167    0.0000 O   0  0  0  0  0  0  0  0  0  0  0  0
   10.4792   -2.8667    0.0000 O   0  0  0  0  0  0  0  0  0  0  0  0
    3.0125   -2.0167    0.0000 C   0  0  0  0  0  0  0  0  0  0  0  0
    0.8542   -3.2375    0.0000 O   0  0  0  0  0  0  0  0  0  0  0  0
    7.2792   -5.3625    0.0000 O   0  0  0  0  0  0  0  0  0  0  0  0
    5.1500   -3.2792    0.0000 O   0  0  0  0  0  0  0  0  0  0  0  0
   -1.3125   -5.2875    0.0000 O   0  0  0  0  0  0  0  0  0  0  0  0
    2.9792   -5.3250    0.0000 O   0  0  0  0  0  0  0  0  0  0  0  0
   13.2375   -2.8417    0.0000 O   0  0  0  0  0  0  0  0  0  0  0  0
    0.1167   -5.3000    0.0000 C   0  0  0  0  0  0  0  0  0  0  0  0
   -1.2875   -1.9792    0.0000 O   0  0  0  0  0  0  0  0  0  0  0  0
    5.1167   -6.5875    0.0000 O   0  0  0  0  0  0  0  0  0  0  0  0
   -3.4625   -5.6792    0.0000 O   0  0  0  0  0  0  0  0  0  0  0  0
    3.7292   -1.6125    0.0000 O   0  0  0  0  0  0  0  0  0  0  0  0
    2.2875   -3.2542    0.0000 C   0  0  0  0  0  0  0  0  0  0  0  0
    8.7125   -5.3792    0.0000 C   0  0  0  0  0  0  0  0  0  0  0  0
   10.2292   -5.3792    0.0000 C   0  0  0  0  0  0  0  0  0  0  0  0
    6.5792   -3.2917    0.0000 C   0  0  0  0  0  0  0  0  0  0  0  0
    3.0042   -2.8417    0.0000 C   0  0  0  0  0  0  0  0  0  0  0  0
    5.8500   -5.3542    0.0000 O   0  0  0  0  0  0  0  0  0  0  0  0
   -0.5833   -3.2250    0.0000 O   0  0  0  0  0  0  0  0  0  0  0  0
    2.3000   -1.6000    0.0000 O   0  0  0  0  0  0  0  0  0  0  0  0
   13.2667   -1.4167    0.0000 C   0  0  0  0  0  0  0  0  0  0  0  0
   14.0917   -1.4292    0.0000 Cl  0  0  0  0  0  0  0  0  0  0  0  0
   11.4542   -4.8542    0.0000 C   0  0  0  0  0  0  0  0  0  0  0  0
    0.8292   -5.7167    0.0000 O   0  0  0  0  0  0  0  0  0  0  0  0
   11.4417   -1.8167    0.0000 C   0  0  0  0  0  0  0  0  0  0  0  0
   11.0375   -5.5667    0.0000 C   0  0  0  0  0  0  0  0  0  0  0  0
   -2.0333   -5.6917    0.0000 C   0  0  0  0  0  0  0  0  0  0  0  0
   -0.6083   -5.7042    0.0000 C   0  0  0  0  0  0  0  0  0  0  0  0
    7.9917   -5.7792    0.0000 C   0  0  0  0  0  0  0  0  0  0  0  0
    9.4250   -5.7917    0.0000 C   0  0  0  0  0  0  0  0  0  0  0  0
    7.3042   -2.8792    0.0000 C   0  0  0  0  0  0  0  0  0  0  0  0
    5.8667   -2.8667    0.0000 C   0  0  0  0  0  0  0  0  0  0  0  0
   11.6250   -1.0042    0.0000 C   0  0  0  0  0  0  0  0  0  0  0  0
   11.0167   -0.4542    0.0000 C   0  0  0  0  0  0  0  0  0  0  0  0
  2  1  1  0
 11  3  1  1
  4  5  1  0
  5 16  1  0
  6  8  1  0
  4  7  1  6
 10  8  1  6
 18  9  1  1
 10  2  1  0
 11  1  1  0
 12  7  1  0
 13  9  1  0
 14  3  1  0
 15 17  1  0
 26 16  1  1
 19 17  1  6
 18  6  1  0
 19 13  1  0
 20 22  1  0
 21 12  1  0
 22 14  1  0
 19 23  1  0
 21 24  1  1
 25 21  1  0
 26 15  1  0
 27 23  1  0
 28 24  1  0
 29 25  1  0
 30  2  2  0
 31  3  2  0
 32 48  1  0
 33  5  2  0
 34  6  2  0
 35 13  2  0
 36 12  2  0
 37 15  2  0
 38 20  2  0
  4 39  1  0
 40 28  2  0
 41 27  2  0
 42 29  2  0
 43 32  2  0
 26 44  1  0
 10 45  1  0
 46  1  1  0
 18 47  1  0
 48 44  1  0
 49 27  1  0
 50 28  1  0
 51 32  1  0
 52 20  1  0
 53 52  1  0
 11 54  1  0
 39 55  1  6
 56 22  1  0
 57 46  1  0
 58 29  1  0
 59 39  1  0
 60 45  1  0
 61 45  1  0
 62 47  1  0
 63 47  1  0
 64 56  1  0
 65 64  1  0
 54 57  1  0
M  END

> <chembl_id>
CHEMBL268628

> <chembl_pref_name>
None

$$$$

     RDKit          2D

 46 52  0  0  1  0  0  0  0  0999 V2000
    3.9542   -8.4417    0.0000 C   0  0  0  0  0  0  0  0  0  0  0  0
    1.0875   -7.7542    0.0000 C   0  0  0  0  0  0  0  0  0  0  0  0
    3.3292   -5.2917    0.0000 C   0  0  0  0  0  0  0  0  0  0  0  0
    4.0375   -4.8792    0.0000 C   0  0  0  0  0  0  0  0  0  0  0  0
    3.3375   -6.1042    0.0000 C   0  0  0  0  0  0  0  0  0  0  0  0
    0.5667   -8.3750    0.0000 C   0  0  0  0  0  0  0  0  0  0  0  0
    3.7792   -9.2292    0.0000 C   0  0  0  0  0  0  0  0  0  0  0  0
    1.5792   -8.3167    0.0000 O   0  0  0  0  0  0  0  0  0  0  0  0
    4.6542   -8.7042    0.0000 O   0  0  0  0  0  0  0  0  0  0  0  0
    1.1292   -7.0417    0.0000 C   0  0  0  0  0  0  0  0  0  0  0  0
    4.7042   -7.7792    0.0000 C   0  0  0  0  0  0  0  0  0  0  0  0
    2.6250   -6.5167    0.0000 C   0  0  0  0  0  0  0  0  0  0  0  0
    4.6792   -9.4000    0.0000 C   0  0  0  0  0  0  0  0  0  0  0  0
    1.0417   -8.8625    0.0000 C   0  0  0  0  0  0  0  0  0  0  0  0
    3.5417   -7.7292    0.0000 C   0  0  0  0  0  0  0  0  0  0  0  0
    1.9125   -7.7542    0.0000 C   0  0  0  0  0  0  0  0  0  0  0  0
    2.6167   -4.8792    0.0000 C   0  0  0  0  0  0  0  0  0  0  0  0
    1.9125   -6.1125    0.0000 C   0  0  0  0  0  0  0  0  0  0  0  0
    1.9125   -5.2917    0.0000 O   0  0  0  0  0  0  0  0  0  0  0  0
    4.7500   -5.2917    0.0000 N   0  0  0  0  0  0  0  0  0  0  0  0
    4.0417   -4.0542    0.0000 C   0  0  0  0  0  0  0  0  0  0  0  0
    3.5875   -6.7125    0.0000 O   0  0  0  0  0  0  0  0  0  0  0  0
    2.6250   -7.3417    0.0000 O   0  0  0  0  0  0  0  0  0  0  0  0
    4.7542   -3.6417    0.0000 C   0  0  0  0  0  0  0  0  0  0  0  0
    5.4667   -4.8875    0.0000 C   0  0  0  0  0  0  0  0  0  0  0  0
    5.4667   -4.0625    0.0000 C   0  0  0  0  0  0  0  0  0  0  0  0
    3.1792   -8.7125    0.0000 C   0  0  0  0  0  0  0  0  0  0  0  0
    0.3042   -7.8875    0.0000 C   0  0  0  0  0  0  0  0  0  0  0  0
    3.1417   -9.6042    0.0000 C   0  0  0  0  0  0  0  0  0  0  0  0
   -0.1833   -8.4042    0.0000 C   0  0  0  0  0  0  0  0  0  0  0  0
    3.3292   -3.6417    0.0000 C   0  0  0  0  0  0  0  0  0  0  0  0
    2.6167   -4.0542    0.0000 C   0  0  0  0  0  0  0  0  0  0  0  0
    1.0417   -9.6875    0.0000 O   0  0  0  0  0  0  0  0  0  0  0  0
    5.2250  -10.0250    0.0000 O   0  0  0  0  0  0  0  0  0  0  0  0
    4.2542   -7.3125    0.0000 O   0  0  0  0  0  0  0  0  0  0  0  0
    2.2125   -8.3667    0.0000 O   0  0  0  0  0  0  0  0  0  0  0  0
    6.1750   -5.3042    0.0000 O   0  0  0  0  0  0  0  0  0  0  0  0
    0.7167   -6.3292    0.0000 C   0  0  0  0  0  0  0  0  0  0  0  0
    0.3292   -6.8292    0.0000 C   0  0  0  0  0  0  0  0  0  0  0  0
    5.2042   -7.1250    0.0000 C   0  0  0  0  0  0  0  0  0  0  0  0
    5.4167   -8.1917    0.0000 C   0  0  0  0  0  0  0  0  0  0  0  0
    3.9917  -10.0292    0.0000 C   0  0  0  0  0  0  0  0  0  0  0  0
    0.2792   -9.1500    0.0000 C   0  0  0  0  0  0  0  0  0  0  0  0
    1.1125   -5.8917    0.0000 C   0  0  0  0  0  0  0  0  0  0  0  0
    1.4917   -6.8250    0.0000 C   0  0  0  0  0  0  0  0  0  0  0  0
    4.7542   -2.8167    0.0000 C   0  0  0  0  0  0  0  0  0  0  0  0
  2 16  1  0
  3  5  1  0
  4  3  1  0
  5 22  1  1
  6 10  1  0
  7 11  1  0
  8  2  1  0
  9  1  1  0
 10  2  1  0
 11  1  1  0
 12  5  1  0
 13  9  1  0
 14  8  1  0
 15  1  1  0
 16 23  1  0
 17  3  2  0
 18 12  1  0
 19 18  1  0
 20  4  2  0
 21  4  1  0
 22 15  1  0
 12 23  1  1
 24 21  2  0
 25 20  1  0
 26 24  1  0
 27  1  1  0
 28  2  1  0
 29 27  1  0
 30 28  1  0
 31 32  2  0
 32 17  1  0
 33 14  2  0
 34 13  2  0
 35 15  2  0
 36 16  2  0
 37 25  1  0
 38 10  1  0
 39 10  1  0
 40 11  1  0
 41 11  1  0
 42  7  1  0
 43  6  1  0
 44 18  1  0
 45 18  1  0
 46 24  1  0
 29  7  1  0
  7 13  1  0
 17 19  1  0
 21 31  1  0
 25 26  2  0
 30  6  1  0
  6 14  1  0
M  END

> <chembl_id>
CHEMBL6396

> <chembl_pref_name>
None

$$$$

     RDKit          2D

 26 28  0  0  0  0  0  0  0  0999 V2000
    4.1042   -2.9500    0.0000 C   0  0  0  0  0  0  0  0  0  0  0  0
    6.9625   -2.1250    0.0000 C   0  0  0  0  0  0  0  0  0  0  0  0
    4.8167   -3.3625    0.0000 C   0  0  0  0  0  0  0  0  0  0  0  0
    4.8167   -4.1875    0.0000 C   0  0  0  0  0  0  0  0  0  0  0  0
    4.1042   -2.1250    0.0000 C   0  0  0  0  0  0  0  0  0  0  0  0
    6.2500   -3.3625    0.0000 C   0  0  0  0  0  0  0  0  0  0  0  0
    6.9625   -1.3000    0.0000 C   0  0  0  0  0  0  0  0  0  0  0  0
    6.9625   -2.9500    0.0000 C   0  0  0  0  0  0  0  0  0  0  0  0
    4.1042   -4.6000    0.0000 O   0  0  0  0  0  0  0  0  0  0  0  0
    6.2500   -4.1875    0.0000 C   0  0  0  0  0  0  0  0  0  0  0  0
    3.3917   -4.1875    0.0000 C   0  0  0  0  0  0  0  0  0  0  0  0
    5.5292   -2.9500    0.0000 C   0  0  0  0  0  0  0  0  0  0  0  0
    3.3917   -3.3625    0.0000 C   0  0  0  0  0  0  0  0  0  0  0  0
    5.5292   -4.6000    0.0000 C   0  0  0  0  0  0  0  0  0  0  0  0
    6.9625   -4.6000    0.0000 N   0  0  0  0  0  0  0  0  0  0  0  0
    2.6667   -4.6042    0.0000 O   0  0  0  0  0  0  0  0  0  0  0  0
    6.1375   -2.1250    0.0000 F   0  0  0  0  0  0  0  0  0  0  0  0
    7.7875   -2.1250    0.0000 F   0  0  0  0  0  0  0  0  0  0  0  0
    4.9292   -2.1250    0.0000 F   0  0  0  0  0  0  0  0  0  0  0  0
    3.2792   -2.1250    0.0000 F   0  0  0  0  0  0  0  0  0  0  0  0
    4.1042   -1.3000    0.0000 F   0  0  0  0  0  0  0  0  0  0  0  0
    6.9625   -0.4750    0.0000 F   0  0  0  0  0  0  0  0  0  0  0  0
    7.7875   -1.3000    0.0000 F   0  0  0  0  0  0  0  0  0  0  0  0
    6.1375   -1.3000    0.0000 F   0  0  0  0  0  0  0  0  0  0  0  0
    7.6792   -4.1875    0.0000 C   0  0  0  0  0  0  0  0  0  0  0  0
    7.6792   -3.3625    0.0000 C   0  0  0  0  0  0  0  0  0  0  0  0
  2  8  1  0
  3  1  1  0
  4  3  2  0
  5  1  1  0
  6 12  2  0
  7  2  1  0
  8  6  1  0
  9 11  1  0
 10  6  1  0
 11 13  1  0
 12  3  1  0
 13  1  2  0
 14  4  1  0
 15 10  1  0
 16 11  2  0
 17  2  1  0
 18  2  1  0
 19  5  1  0
 20  5  1  0
 21  5  1  0
 22  7  1  0
 23  7  1  0
 24  7  1  0
 25 15  1  0
 26  8  1  0
  9  4  1  0
 14 10  2  0
 25 26  1  0
M  END

> <chembl_id>
CHEMBL266928

> <chembl_pref_name>
None

$$$$

     RDKit          2D

 70 71  0  0  1  0  0  0  0  0999 V2000
    9.4792   -3.4375    0.0000 N   0  0  0  0  0  0  0  0  0  0  0  0
    8.7667   -3.0167    0.0000 C   0  0  0  0  0  0  0  0  0  0  0  0
   10.4167   -2.3000    0.0000 C   0  0  0  0  0  0  0  0  0  0  0  0
   -0.5458   -3.3500    0.0000 C   0  0  0  0  0  0  0  0  0  0  0  0
    0.1792   -2.9417    0.0000 C   0  0  0  0  0  0  0  0  0  0  0  0
    6.6167   -3.4125    0.0000 C   0  0  0  0  0  0  0  0  0  0  0  0
   -1.2583   -2.9292    0.0000 N   0  0  0  0  0  0  0  0  0  0  0  0
    7.3292   -3.0042    0.0000 N   0  0  0  0  0  0  0  0  0  0  0  0
   12.1667   -1.0000    0.0000 C   0  0  0  0  0  0  0  0  0  0  0  0
    5.1792   -3.4000    0.0000 N   0  0  0  0  0  0  0  0  0  0  0  0
    8.0500   -3.4292    0.0000 C   0  0  0  0  0  0  0  0  0  0  0  0
   10.2375   -3.1042    0.0000 C   0  0  0  0  0  0  0  0  0  0  0  0
   -1.9750   -3.3292    0.0000 C   0  0  0  0  0  0  0  0  0  0  0  0
    4.4667   -2.9792    0.0000 C   0  0  0  0  0  0  0  0  0  0  0  0
   11.2042   -2.0542    0.0000 N   0  0  0  0  0  0  0  0  0  0  0  0
    2.3167   -3.3750    0.0000 C   0  0  0  0  0  0  0  0  0  0  0  0
    0.8875   -3.3542    0.0000 N   0  0  0  0  0  0  0  0  0  0  0  0
    3.0375   -2.9667    0.0000 N   0  0  0  0  0  0  0  0  0  0  0  0
    5.9042   -2.9917    0.0000 C   0  0  0  0  0  0  0  0  0  0  0  0
    3.7542   -3.3875    0.0000 C   0  0  0  0  0  0  0  0  0  0  0  0
   11.3792   -1.2500    0.0000 N   0  0  0  0  0  0  0  0  0  0  0  0
   -2.6958   -2.9167    0.0000 C   0  0  0  0  0  0  0  0  0  0  0  0
    3.7417   -4.2125    0.0000 C   0  0  0  0  0  0  0  0  0  0  0  0
   -2.6833   -2.0917    0.0000 C   0  0  0  0  0  0  0  0  0  0  0  0
   -3.4083   -3.3250    0.0000 N   0  0  0  0  0  0  0  0  0  0  0  0
    1.6042   -2.9542    0.0000 C   0  0  0  0  0  0  0  0  0  0  0  0
   12.6417   -0.3167    0.0000 O   0  0  0  0  0  0  0  0  0  0  0  0
    4.4542   -4.6292    0.0000 C   0  0  0  0  0  0  0  0  0  0  0  0
   -1.9708   -1.6792    0.0000 C   0  0  0  0  0  0  0  0  0  0  0  0
   -3.4208   -4.1500    0.0000 C   0  0  0  0  0  0  0  0  0  0  0  0
    8.7750   -2.1917    0.0000 O   0  0  0  0  0  0  0  0  0  0  0  0
    9.8042   -1.7417    0.0000 O   0  0  0  0  0  0  0  0  0  0  0  0
    2.3417   -0.8917    0.0000 C   0  0  0  0  0  0  0  0  0  0  0  0
   12.5125   -1.7417    0.0000 O   0  0  0  0  0  0  0  0  0  0  0  0
    0.1792   -2.1125    0.0000 O   0  0  0  0  0  0  0  0  0  0  0  0
    6.6042   -4.2375    0.0000 O   0  0  0  0  0  0  0  0  0  0  0  0
   -1.9833   -4.1625    0.0000 O   0  0  0  0  0  0  0  0  0  0  0  0
    4.4792   -2.1542    0.0000 O   0  0  0  0  0  0  0  0  0  0  0  0
    2.3125   -4.1917    0.0000 O   0  0  0  0  0  0  0  0  0  0  0  0
   -0.5583   -4.1750    0.0000 C   0  0  0  0  0  0  0  0  0  0  0  0
    4.4500   -5.4625    0.0000 O   0  0  0  0  0  0  0  0  0  0  0  0
   -1.9583   -0.8542    0.0000 O   0  0  0  0  0  0  0  0  0  0  0  0
   -4.1333   -4.5542    0.0000 O   0  0  0  0  0  0  0  0  0  0  0  0
    3.0625   -0.4875    0.0000 O   0  0  0  0  0  0  0  0  0  0  0  0
    1.6167   -2.1292    0.0000 C   0  0  0  0  0  0  0  0  0  0  0  0
    8.0417   -4.2542    0.0000 C   0  0  0  0  0  0  0  0  0  0  0  0
    9.5625   -4.2542    0.0000 C   0  0  0  0  0  0  0  0  0  0  0  0
    5.9125   -2.1667    0.0000 C   0  0  0  0  0  0  0  0  0  0  0  0
    2.3375   -1.7167    0.0000 C   0  0  0  0  0  0  0  0  0  0  0  0
   13.4667   -0.3917    0.0000 C   0  0  0  0  0  0  0  0  0  0  0  0
    5.1792   -4.2292    0.0000 O   0  0  0  0  0  0  0  0  0  0  0  0
   -1.2500   -2.1000    0.0000 O   0  0  0  0  0  0  0  0  0  0  0  0
    1.6292   -0.4750    0.0000 O   0  0  0  0  0  0  0  0  0  0  0  0
   10.7875   -3.7292    0.0000 C   0  0  0  0  0  0  0  0  0  0  0  0
    0.1542   -4.5917    0.0000 O   0  0  0  0  0  0  0  0  0  0  0  0
   10.7667   -0.6917    0.0000 C   0  0  0  0  0  0  0  0  0  0  0  0
   10.3667   -4.4417    0.0000 C   0  0  0  0  0  0  0  0  0  0  0  0
   -2.7000   -4.5667    0.0000 C   0  0  0  0  0  0  0  0  0  0  0  0
   -1.2750   -4.5792    0.0000 C   0  0  0  0  0  0  0  0  0  0  0  0
    8.7542   -4.6667    0.0000 C   0  0  0  0  0  0  0  0  0  0  0  0
    7.3167   -4.6542    0.0000 C   0  0  0  0  0  0  0  0  0  0  0  0
    5.2000   -1.7417    0.0000 C   0  0  0  0  0  0  0  0  0  0  0  0
    6.6292   -1.7542    0.0000 C   0  0  0  0  0  0  0  0  0  0  0  0
   13.8042   -1.1417    0.0000 C   0  0  0  0  0  0  0  0  0  0  0  0
   13.9292    0.2750    0.0000 C   0  0  0  0  0  0  0  0  0  0  0  0
   10.9542    0.1208    0.0000 C   0  0  0  0  0  0  0  0  0  0  0  0
   10.3417    0.6708    0.0000 C   0  0  0  0  0  0  0  0  0  0  0  0
   14.7542    0.2083    0.0000 C   0  0  0  0  0  0  0  0  0  0  0  0
   14.6292   -1.2167    0.0000 C   0  0  0  0  0  0  0  0  0  0  0  0
   15.1042   -0.5417    0.0000 C   0  0  0  0  0  0  0  0  0  0  0  0
  2  1  1  0
 12  3  1  1
  4  5  1  0
  5 17  1  0
  6  8  1  0
  4  7  1  6
 11  8  1  6
  9 21  1  0
 19 10  1  1
 11  2  1  0
 12  1  1  0
 13  7  1  0
 14 10  1  0
 15  3  1  0
 16 18  1  0
 26 17  1  1
 20 18  1  6
 19  6  1  0
 20 14  1  0
 21 15  1  0
 22 13  1  0
 20 23  1  0
 22 24  1  1
 25 22  1  0
 26 16  1  0
 27  9  1  0
 28 23  1  0
 29 24  1  0
 30 25  1  0
 31  2  2  0
 32  3  2  0
 33 49  1  0
 34  9  2  0
 35  5  2  0
 36  6  2  0
 37 13  2  0
 38 14  2  0
 39 16  2  0
  4 40  1  0
 41 28  2  0
 42 29  2  0
 43 30  2  0
 44 33  2  0
 26 45  1  0
 11 46  1  0
 47  1  1  0
 19 48  1  0
 49 45  1  0
 50 27  1  0
 51 28  1  0
 52 29  1  0
 53 33  1  0
 12 54  1  0
 40 55  1  6
 56 21  1  0
 57 47  1  0
 58 30  1  0
 59 40  1  0
 60 46  1  0
 61 46  1  0
 62 48  1  0
 63 48  1  0
 64 50  2  0
 65 50  1  0
 66 56  1  0
 67 66  1  0
 68 65  2  0
 69 64  1  0
 70 68  1  0
 54 57  1  0
 69 70  2  0
M  END

> <chembl_id>
CHEMBL262528

> <chembl_pref_name>
None

$$$$

     RDKit          2D

 24 27  0  0  0  0  0  0  0  0999 V2000
    4.3875   -1.3542    0.0000 C   0  0  0  0  0  0  0  0  0  0  0  0
    3.6167   -1.0375    0.0000 N   0  0  0  0  0  0  0  0  0  0  0  0
    4.9167   -0.7292    0.0000 C   0  0  0  0  0  0  0  0  0  0  0  0
    2.7542   -2.2500    0.0000 C   0  0  0  0  0  0  0  0  0  0  0  0
    4.4917   -0.0292    0.0000 N   0  0  0  0  0  0  0  0  0  0  0  0
    3.3000   -2.8625    0.0000 C   0  0  0  0  0  0  0  0  0  0  0  0
    2.9000   -1.4292    0.0000 C   0  0  0  0  0  0  0  0  0  0  0  0
    4.1125   -2.8125    0.0000 N   0  0  0  0  0  0  0  0  0  0  0  0
    3.6875   -0.2167    0.0000 C   0  0  0  0  0  0  0  0  0  0  0  0
    4.5917   -2.1417    0.0000 C   0  0  0  0  0  0  0  0  0  0  0  0
    5.7417   -0.7792    0.0000 C   0  0  0  0  0  0  0  0  0  0  0  0
    1.9792   -2.5375    0.0000 C   0  0  0  0  0  0  0  0  0  0  0  0
    2.2542   -0.9042    0.0000 C   0  0  0  0  0  0  0  0  0  0  0  0
    7.3000   -2.3167    0.0000 C   0  0  0  0  0  0  0  0  0  0  0  0
    2.9875   -3.6292    0.0000 O   0  0  0  0  0  0  0  0  0  0  0  0
    6.1125   -1.5250    0.0000 O   0  0  0  0  0  0  0  0  0  0  0  0
    7.2417   -3.1292    0.0000 C   0  0  0  0  0  0  0  0  0  0  0  0
    7.9875   -2.7667    0.0000 C   0  0  0  0  0  0  0  0  0  0  0  0
    6.2042   -0.0917    0.0000 O   0  0  0  0  0  0  0  0  0  0  0  0
    1.3417   -2.0125    0.0000 C   0  0  0  0  0  0  0  0  0  0  0  0
    6.9292   -1.5750    0.0000 C   0  0  0  0  0  0  0  0  0  0  0  0
    1.4792   -1.1917    0.0000 C   0  0  0  0  0  0  0  0  0  0  0  0
    4.5042   -3.5417    0.0000 C   0  0  0  0  0  0  0  0  0  0  0  0
    0.5750   -2.2917    0.0000 Cl  0  0  0  0  0  0  0  0  0  0  0  0
  2  1  1  0
  3  1  2  0
  4  7  2  0
  5  3  1  0
  6  8  1  0
  7  2  1  0
  8 10  1  0
  9  2  1  0
 10  1  1  0
 11  3  1  0
 12  4  1  0
 13  7  1  0
 14 21  1  0
 15  6  2  0
 16 11  1  0
 17 14  1  0
 18 14  1  0
 19 11  2  0
 20 22  1  0
 21 16  1  0
 22 13  2  0
 23  8  1  0
 24 20  1  0
  5  9  2  0
  4  6  1  0
 20 12  2  0
 17 18  1  0
M  END

> <chembl_id>
CHEMBL6440

> <chembl_pref_name>
None

$$$$

     RDKit          2D

 18 18  0  0  0  0  0  0  0  0999 V2000
   -0.9458   -0.9000    0.0000 O   0  0  0  0  0  0  0  0  0  0  0  0
   -2.0833   -0.9000    0.0000 C   0  0  0  0  0  0  0  0  0  0  0  0
    0.7500    0.0708    0.0000 N   0  0  0  0  0  0  0  0  0  0  0  0
   -2.6458    0.0708    0.0000 C   0  0  0  0  0  0  0  0  0  0  0  0
   -2.6333    2.0708    0.0000 C   0  0  0  0  0  0  0  0  0  0  0  0
   -2.0583    3.0625    0.0000 C   0  0  0  0  0  0  0  0  0  0  0  0
    0.7500   -1.8750    0.0000 C   0  0  0  0  0  0  0  0  0  0  0  0
   -0.3833   -1.8750    0.0000 C   0  0  0  0  0  0  0  0  0  0  0  0
    1.3125   -0.9000    0.0000 C   0  0  0  0  0  0  0  0  0  0  0  0
    1.3125   -2.8500    0.0000 O   0  0  0  0  0  0  0  0  0  0  0  0
   -2.0583    1.0708    0.0000 C   0  0  0  0  0  0  0  0  0  0  0  0
    1.3125    1.0458    0.0000 C   0  0  0  0  0  0  0  0  0  0  0  0
   -2.6458   -1.8750    0.0000 C   0  0  0  0  0  0  0  0  0  0  0  0
   -3.7833    0.0708    0.0000 C   0  0  0  0  0  0  0  0  0  0  0  0
    0.7500    2.0208    0.0000 C   0  0  0  0  0  0  0  0  0  0  0  0
    2.4417    1.0458    0.0000 C   0  0  0  0  0  0  0  0  0  0  0  0
   -4.3458   -0.9000    0.0000 C   0  0  0  0  0  0  0  0  0  0  0  0
   -3.7833   -1.8750    0.0000 C   0  0  0  0  0  0  0  0  0  0  0  0
  2  1  1  0
  3  9  1  0
  4  2  1  0
  5 11  1  0
  6  5  2  0
  7  8  1  0
  8  1  1  0
  9  7  1  0
 10  7  1  0
 11  4  1  0
 12  3  1  0
 13  2  2  0
 14  4  2  0
 15 12  1  0
 16 12  1  0
 17 18  2  0
 18 13  1  0
 14 17  1  0
M  END

> <chembl_id>
CHEMBL266195

> <chembl_pref_name>
ALPRENOLOL

$$$$

     RDKit          2D

 22 24  0  0  0  0  0  0  0  0999 V2000
    4.3417   -3.3042    0.0000 C   0  0  0  0  0  0  0  0  0  0  0  0
    5.0542   -3.7167    0.0000 C   0  0  0  0  0  0  0  0  0  0  0  0
    5.0542   -4.5417    0.0000 C   0  0  0  0  0  0  0  0  0  0  0  0
    6.4917   -4.5417    0.0000 C   0  0  0  0  0  0  0  0  0  0  0  0
    4.3417   -2.4792    0.0000 C   0  0  0  0  0  0  0  0  0  0  0  0
    6.4917   -3.7167    0.0000 C   0  0  0  0  0  0  0  0  0  0  0  0
    7.2042   -4.9542    0.0000 N   0  0  0  0  0  0  0  0  0  0  0  0
    7.2042   -3.3042    0.0000 C   0  0  0  0  0  0  0  0  0  0  0  0
    4.3417   -4.9542    0.0000 O   0  0  0  0  0  0  0  0  0  0  0  0
    3.6292   -4.5417    0.0000 C   0  0  0  0  0  0  0  0  0  0  0  0
    3.6292   -3.7167    0.0000 C   0  0  0  0  0  0  0  0  0  0  0  0
    5.7667   -4.9542    0.0000 C   0  0  0  0  0  0  0  0  0  0  0  0
    5.7667   -3.3042    0.0000 C   0  0  0  0  0  0  0  0  0  0  0  0
    7.9167   -3.7167    0.0000 C   0  0  0  0  0  0  0  0  0  0  0  0
    7.9167   -4.5417    0.0000 C   0  0  0  0  0  0  0  0  0  0  0  0
    2.9042   -4.9625    0.0000 O   0  0  0  0  0  0  0  0  0  0  0  0
    4.3417   -1.6542    0.0000 F   0  0  0  0  0  0  0  0  0  0  0  0
    5.1667   -2.4792    0.0000 F   0  0  0  0  0  0  0  0  0  0  0  0
    3.5167   -2.4792    0.0000 F   0  0  0  0  0  0  0  0  0  0  0  0
    7.2042   -2.4792    0.0000 C   0  0  0  0  0  0  0  0  0  0  0  0
    7.9167   -5.3667    0.0000 C   0  0  0  0  0  0  0  0  0  0  0  0
    8.7167   -4.3167    0.0000 C   0  0  0  0  0  0  0  0  0  0  0  0
  2  1  1  0
  3  2  2  0
  4  6  1  0
  5  1  1  0
  6 13  2  0
  7  4  1  0
  8  6  1  0
  9 10  1  0
 10 11  1  0
 11  1  2  0
 12  3  1  0
 13  2  1  0
 14  8  2  0
 15 14  1  0
 16 10  2  0
 17  5  1  0
 18  5  1  0
 19  5  1  0
 20  8  1  0
 21 15  1  0
 22 15  1  0
  3  9  1  0
 12  4  2  0
  7 15  1  0
M  END

> <chembl_id>
CHEMBL6441

> <chembl_pref_name>
None

$$$$

     RDKit          2D

 22 24  0  0  0  0  0  0  0  0999 V2000
    3.5042   -0.5917    0.0000 C   0  0  0  0  0  0  0  0  0  0  0  0
    4.2167   -1.0042    0.0000 C   0  0  0  0  0  0  0  0  0  0  0  0
    4.2167   -1.8292    0.0000 C   0  0  0  0  0  0  0  0  0  0  0  0
    5.6500   -1.8292    0.0000 C   0  0  0  0  0  0  0  0  0  0  0  0
    3.5042    0.2333    0.0000 C   0  0  0  0  0  0  0  0  0  0  0  0
    5.6500   -1.0042    0.0000 C   0  0  0  0  0  0  0  0  0  0  0  0
    4.9292   -2.2417    0.0000 C   0  0  0  0  0  0  0  0  0  0  0  0
    3.5042   -2.2417    0.0000 O   0  0  0  0  0  0  0  0  0  0  0  0
    2.7917   -1.8292    0.0000 C   0  0  0  0  0  0  0  0  0  0  0  0
    2.7917   -1.0042    0.0000 C   0  0  0  0  0  0  0  0  0  0  0  0
    4.9292   -0.5917    0.0000 C   0  0  0  0  0  0  0  0  0  0  0  0
    6.3625   -2.2417    0.0000 N   0  0  0  0  0  0  0  0  0  0  0  0
    6.3625   -0.5917    0.0000 C   0  0  0  0  0  0  0  0  0  0  0  0
    7.0792   -1.8292    0.0000 C   0  0  0  0  0  0  0  0  0  0  0  0
    2.0667   -2.2500    0.0000 O   0  0  0  0  0  0  0  0  0  0  0  0
    3.5042    1.0583    0.0000 F   0  0  0  0  0  0  0  0  0  0  0  0
    4.3292    0.2333    0.0000 F   0  0  0  0  0  0  0  0  0  0  0  0
    2.6792    0.2333    0.0000 F   0  0  0  0  0  0  0  0  0  0  0  0
    7.0792   -1.0042    0.0000 C   0  0  0  0  0  0  0  0  0  0  0  0
    6.3625   -3.0667    0.0000 C   0  0  0  0  0  0  0  0  0  0  0  0
    6.3625    0.2333    0.0000 C   0  0  0  0  0  0  0  0  0  0  0  0
    7.0750    0.6458    0.0000 C   0  0  0  0  0  0  0  0  0  0  0  0
  2  1  1  0
  3  2  2  0
  4  6  1  0
  5  1  1  0
  6 11  2  0
  7  3  1  0
  8  9  1  0
  9 10  1  0
 10  1  2  0
 11  2  1  0
 12  4  1  0
 13  6  1  0
 14 19  1  0
 15  9  2  0
 16  5  1  0
 17  5  1  0
 18  5  1  0
 19 13  1  0
 20 12  1  0
 21 13  1  0
 22 21  1  0
  3  8  1  0
  7  4  2  0
 12 14  1  0
M  END

> <chembl_id>
CHEMBL6530

> <chembl_pref_name>
None

$$$$

     RDKit          2D

 17 19  0  0  0  0  0  0  0  0999 V2000
    2.8407   -5.6568    0.0000 N   0  0  0  0  0  0  0  0  0  0  0  0
    3.5529   -5.2404    0.0000 C   0  0  0  0  0  0  0  0  0  0  0  0
    4.2691   -5.6490    0.0000 N   0  0  0  0  0  0  0  0  0  0  0  0
    2.8330   -4.0028    0.0000 N   0  0  0  0  0  0  0  0  0  0  0  0
    2.1208   -5.2404    0.0000 C   0  0  0  0  0  0  0  0  0  0  0  0
    2.1208   -4.4192    0.0000 C   0  0  0  0  0  0  0  0  0  0  0  0
    3.5452   -4.4114    0.0000 C   0  0  0  0  0  0  0  0  0  0  0  0
    5.6935   -6.4663    0.0000 N   0  0  0  0  0  0  0  0  0  0  0  0
    1.4086   -4.0028    0.0000 C   0  0  0  0  0  0  0  0  0  0  0  0
    1.4086   -5.6607    0.0000 C   0  0  0  0  0  0  0  0  0  0  0  0
    0.6964   -4.4192    0.0000 C   0  0  0  0  0  0  0  0  0  0  0  0
    0.6964   -5.2481    0.0000 C   0  0  0  0  0  0  0  0  0  0  0  0
    4.2691   -6.4741    0.0000 C   0  0  0  0  0  0  0  0  0  0  0  0
    4.9774   -5.2287    0.0000 C   0  0  0  0  0  0  0  0  0  0  0  0
    5.6935   -5.6451    0.0000 C   0  0  0  0  0  0  0  0  0  0  0  0
    4.9813   -6.8827    0.0000 C   0  0  0  0  0  0  0  0  0  0  0  0
   -0.0159   -4.0105    0.0000 C   0  0  0  0  0  0  0  0  0  0  0  0
  2  1  2  0
  3  2  1  0
  4  6  1  0
  5  1  1  0
  6  5  1  0
  7  2  1  0
  8 15  1  0
  9  6  2  0
 10  5  2  0
 11 12  2  0
 12 10  1  0
 13  3  1  0
 14  3  1  0
 15 14  1  0
 16 13  1  0
 17 11  1  0
  4  7  2  0
 11  9  1  0
  8 16  1  0
M  END

> <chembl_id>
CHEMBL6529

> <chembl_pref_name>
None

$$$$

     RDKit          2D

 33 36  0  0  0  0  0  0  0  0999 V2000
    1.5542   -3.7375    0.0000 C   0  0  0  0  0  0  0  0  0  0  0  0
    2.2542   -4.1500    0.0000 C   0  0  0  0  0  0  0  0  0  0  0  0
    0.8417   -4.1292    0.0000 N   0  0  0  0  0  0  0  0  0  0  0  0
    1.5417   -5.3750    0.0000 N   0  0  0  0  0  0  0  0  0  0  0  0
    2.2542   -4.9667    0.0000 C   0  0  0  0  0  0  0  0  0  0  0  0
    0.8375   -4.9625    0.0000 C   0  0  0  0  0  0  0  0  0  0  0  0
    7.9667   -2.4750    0.0000 C   0  0  0  0  0  0  0  0  0  0  0  0
    5.1167   -4.1292    0.0000 N   0  0  0  0  0  0  0  0  0  0  0  0
    5.8125   -5.4000    0.0000 C   0  0  0  0  0  0  0  0  0  0  0  0
    6.5167   -5.8417    0.0000 C   0  0  0  0  0  0  0  0  0  0  0  0
    8.6792   -2.8792    0.0000 N   0  0  0  0  0  0  0  0  0  0  0  0
    2.9667   -3.7250    0.0000 C   0  0  0  0  0  0  0  0  0  0  0  0
    7.2542   -2.8875    0.0000 C   0  0  0  0  0  0  0  0  0  0  0  0
    5.8292   -3.7167    0.0000 C   0  0  0  0  0  0  0  0  0  0  0  0
    1.5542   -2.9125    0.0000 O   0  0  0  0  0  0  0  0  0  0  0  0
    4.4000   -3.7250    0.0000 C   0  0  0  0  0  0  0  0  0  0  0  0
    3.6875   -4.1292    0.0000 C   0  0  0  0  0  0  0  0  0  0  0  0
   10.1042   -1.2250    0.0000 N   0  0  0  0  0  0  0  0  0  0  0  0
    7.9625   -1.6500    0.0000 O   0  0  0  0  0  0  0  0  0  0  0  0
    2.9667   -5.3792    0.0000 C   0  0  0  0  0  0  0  0  0  0  0  0
    7.2542   -3.7125    0.0000 C   0  0  0  0  0  0  0  0  0  0  0  0
    6.5292   -2.4792    0.0000 C   0  0  0  0  0  0  0  0  0  0  0  0
    6.5417   -4.1292    0.0000 C   0  0  0  0  0  0  0  0  0  0  0  0
    5.8167   -2.9000    0.0000 C   0  0  0  0  0  0  0  0  0  0  0  0
    9.3917   -2.4667    0.0000 C   0  0  0  0  0  0  0  0  0  0  0  0
    9.3875   -1.6417    0.0000 C   0  0  0  0  0  0  0  0  0  0  0  0
    5.1167   -4.9542    0.0000 C   0  0  0  0  0  0  0  0  0  0  0  0
    3.6875   -4.9667    0.0000 C   0  0  0  0  0  0  0  0  0  0  0  0
    0.1167   -5.3667    0.0000 C   0  0  0  0  0  0  0  0  0  0  0  0
   10.1000   -0.4000    0.0000 C   0  0  0  0  0  0  0  0  0  0  0  0
    8.6750   -1.2375    0.0000 C   0  0  0  0  0  0  0  0  0  0  0  0
    9.3792    0.0125    0.0000 C   0  0  0  0  0  0  0  0  0  0  0  0
    8.6667   -0.4125    0.0000 C   0  0  0  0  0  0  0  0  0  0  0  0
  2  1  1  0
  3  1  2  0
  4  6  2  0
  5  2  2  0
  6  3  1  0
  7 13  1  0
  8 16  1  0
  9 27  1  0
 10  9  3  0
 11  7  1  0
 12  2  1  0
 13 22  1  0
 14  8  1  0
 15  1  1  0
 16 17  1  0
 17 12  2  0
 18 26  2  0
 19  7  2  0
 20  5  1  0
 21 23  1  0
 22 24  2  0
 23 14  2  0
 24 14  1  0
 25 11  1  0
 26 25  1  0
 27  8  1  0
 28 17  1  0
 29  6  1  0
 30 18  1  0
 31 26  1  0
 32 33  1  0
 33 31  2  0
  4  5  1  0
 28 20  2  0
 13 21  2  0
 32 30  2  0
M  END

> <chembl_id>
CHEMBL6357

> <chembl_pref_name>
None

$$$$

     RDKit          2D

 22 24  0  0  0  0  0  0  0  0999 V2000
    4.2667   -3.0667    0.0000 C   0  0  0  0  0  0  0  0  0  0  0  0
    4.9750   -3.4875    0.0000 C   0  0  0  0  0  0  0  0  0  0  0  0
    4.9667   -4.3167    0.0000 C   0  0  0  0  0  0  0  0  0  0  0  0
    4.2667   -2.2417    0.0000 C   0  0  0  0  0  0  0  0  0  0  0  0
    4.2542   -4.7167    0.0000 O   0  0  0  0  0  0  0  0  0  0  0  0
    3.5375   -4.3042    0.0000 C   0  0  0  0  0  0  0  0  0  0  0  0
    3.5417   -3.4792    0.0000 C   0  0  0  0  0  0  0  0  0  0  0  0
    6.4000   -4.3167    0.0000 C   0  0  0  0  0  0  0  0  0  0  0  0
    6.4042   -3.5000    0.0000 C   0  0  0  0  0  0  0  0  0  0  0  0
    5.6917   -3.0792    0.0000 C   0  0  0  0  0  0  0  0  0  0  0  0
    5.6792   -4.7292    0.0000 C   0  0  0  0  0  0  0  0  0  0  0  0
    7.1042   -4.7417    0.0000 N   0  0  0  0  0  0  0  0  0  0  0  0
    2.8167   -4.7250    0.0000 O   0  0  0  0  0  0  0  0  0  0  0  0
    7.1167   -3.0917    0.0000 C   0  0  0  0  0  0  0  0  0  0  0  0
    4.2792   -1.4250    0.0000 F   0  0  0  0  0  0  0  0  0  0  0  0
    5.0917   -2.2542    0.0000 F   0  0  0  0  0  0  0  0  0  0  0  0
    3.4417   -2.2417    0.0000 F   0  0  0  0  0  0  0  0  0  0  0  0
    7.8292   -4.3292    0.0000 C   0  0  0  0  0  0  0  0  0  0  0  0
    7.8292   -3.5042    0.0000 C   0  0  0  0  0  0  0  0  0  0  0  0
    7.1250   -2.2667    0.0000 C   0  0  0  0  0  0  0  0  0  0  0  0
    7.8417   -1.8542    0.0000 C   0  0  0  0  0  0  0  0  0  0  0  0
    7.8417   -1.0292    0.0000 C   0  0  0  0  0  0  0  0  0  0  0  0
  2  1  1  0
  3  2  2  0
  4  1  1  0
  5  6  1  0
  6  7  1  0
  7  1  2  0
  8  9  1  0
  9 10  2  0
 10  2  1  0
 11  3  1  0
 12  8  1  0
 13  6  2  0
 14  9  1  0
 15  4  1  0
 16  4  1  0
 17  4  1  0
 18 19  1  0
 19 14  1  0
 20 14  1  0
 21 20  1  0
 22 21  1  0
  3  5  1  0
 11  8  2  0
 12 18  1  0
M  END

> <chembl_id>
CHEMBL6855

> <chembl_pref_name>
None

$$$$

     RDKit          2D

 30 32  0  0  0  0  0  0  0  0999 V2000
    0.1792   -3.6167    0.0000 N   0  0  0  0  0  0  0  0  0  0  0  0
    0.0542   -4.5167    0.0000 C   0  0  0  0  0  0  0  0  0  0  0  0
    4.5417   -3.7042    0.0000 S   0  0  0  0  0  0  0  0  0  0  0  0
   -0.7250   -4.7792    0.0000 C   0  0  0  0  0  0  0  0  0  0  0  0
    0.9667   -3.3542    0.0000 C   0  0  0  0  0  0  0  0  0  0  0  0
    1.6875   -3.7542    0.0000 C   0  0  0  0  0  0  0  0  0  0  0  0
    3.8250   -3.3042    0.0000 C   0  0  0  0  0  0  0  0  0  0  0  0
    4.5417   -4.5292    0.0000 O   0  0  0  0  0  0  0  0  0  0  0  0
    4.5417   -2.8792    0.0000 O   0  0  0  0  0  0  0  0  0  0  0  0
    0.6750   -5.0542    0.0000 O   0  0  0  0  0  0  0  0  0  0  0  0
    5.2500   -3.2875    0.0000 C   0  0  0  0  0  0  0  0  0  0  0  0
   -1.3458   -4.2417    0.0000 O   0  0  0  0  0  0  0  0  0  0  0  0
   -0.8875   -5.5917    0.0000 C   0  0  0  0  0  0  0  0  0  0  0  0
    1.7000   -4.5792    0.0000 O   0  0  0  0  0  0  0  0  0  0  0  0
   -0.4375   -3.0792    0.0000 C   0  0  0  0  0  0  0  0  0  0  0  0
    2.3917   -3.3292    0.0000 O   0  0  0  0  0  0  0  0  0  0  0  0
    3.1167   -3.7292    0.0000 C   0  0  0  0  0  0  0  0  0  0  0  0
    1.1250   -2.5542    0.0000 C   0  0  0  0  0  0  0  0  0  0  0  0
    5.9667   -3.6875    0.0000 C   0  0  0  0  0  0  0  0  0  0  0  0
    5.2292   -2.4625    0.0000 C   0  0  0  0  0  0  0  0  0  0  0  0
   -1.6708   -5.8542    0.0000 C   0  0  0  0  0  0  0  0  0  0  0  0
   -0.2625   -6.1292    0.0000 C   0  0  0  0  0  0  0  0  0  0  0  0
   -0.2750   -2.2667    0.0000 C   0  0  0  0  0  0  0  0  0  0  0  0
    0.5042   -2.0042    0.0000 C   0  0  0  0  0  0  0  0  0  0  0  0
    5.9375   -2.0375    0.0000 C   0  0  0  0  0  0  0  0  0  0  0  0
   -1.8250   -6.6625    0.0000 C   0  0  0  0  0  0  0  0  0  0  0  0
   -0.4208   -6.9375    0.0000 C   0  0  0  0  0  0  0  0  0  0  0  0
    6.6750   -3.2625    0.0000 C   0  0  0  0  0  0  0  0  0  0  0  0
    6.6625   -2.4375    0.0000 C   0  0  0  0  0  0  0  0  0  0  0  0
   -1.2083   -7.2042    0.0000 C   0  0  0  0  0  0  0  0  0  0  0  0
  2  1  1  0
  3  7  1  0
  4  2  1  0
  5  1  1  0
  6  5  1  0
  7 17  1  0
  8  3  2  0
  9  3  2  0
 10  2  2  0
 11  3  1  0
 12  4  2  0
 13  4  1  0
 14  6  2  0
 15  1  1  0
 16  6  1  0
 17 16  1  0
 18  5  1  0
 19 11  2  0
 20 11  1  0
 21 13  2  0
 22 13  1  0
 23 15  1  0
 24 23  1  0
 25 20  2  0
 26 21  1  0
 27 22  2  0
 28 19  1  0
 29 25  1  0
 30 27  1  0
 18 24  1  0
 26 30  2  0
 28 29  2  0
M  END

> <chembl_id>
CHEMBL6699

> <chembl_pref_name>
None

$$$$

     RDKit          2D

 26 27  0  0  0  0  0  0  0  0999 V2000
    0.1792   -3.6167    0.0000 N   0  0  0  0  0  0  0  0  0  0  0  0
    0.0542   -4.5167    0.0000 C   0  0  0  0  0  0  0  0  0  0  0  0
   -0.7250   -4.7792    0.0000 C   0  0  0  0  0  0  0  0  0  0  0  0
    0.9667   -3.3542    0.0000 C   0  0  0  0  0  0  0  0  0  0  0  0
    1.6875   -3.7542    0.0000 C   0  0  0  0  0  0  0  0  0  0  0  0
   -0.8875   -5.5917    0.0000 C   0  0  0  0  0  0  0  0  0  0  0  0
    0.6750   -5.0542    0.0000 O   0  0  0  0  0  0  0  0  0  0  0  0
   -1.3458   -4.2417    0.0000 O   0  0  0  0  0  0  0  0  0  0  0  0
    1.7000   -4.5792    0.0000 O   0  0  0  0  0  0  0  0  0  0  0  0
    6.6750   -3.2625    0.0000 N   0  0  0  0  0  0  0  0  0  0  0  0
   -0.4375   -3.0792    0.0000 C   0  0  0  0  0  0  0  0  0  0  0  0
    2.3917   -3.3292    0.0000 O   0  0  0  0  0  0  0  0  0  0  0  0
    5.2500   -3.2875    0.0000 C   0  0  0  0  0  0  0  0  0  0  0  0
    1.1250   -2.5542    0.0000 C   0  0  0  0  0  0  0  0  0  0  0  0
    5.9667   -3.6875    0.0000 C   0  0  0  0  0  0  0  0  0  0  0  0
   -1.6708   -5.8542    0.0000 C   0  0  0  0  0  0  0  0  0  0  0  0
   -0.2708   -6.1375    0.0000 C   0  0  0  0  0  0  0  0  0  0  0  0
   -1.6250   -5.2292    0.0000 C   0  0  0  0  0  0  0  0  0  0  0  0
    6.6625   -2.4375    0.0000 C   0  0  0  0  0  0  0  0  0  0  0  0
    3.1167   -3.7292    0.0000 C   0  0  0  0  0  0  0  0  0  0  0  0
    4.5417   -3.7042    0.0000 C   0  0  0  0  0  0  0  0  0  0  0  0
    5.2292   -2.4625    0.0000 C   0  0  0  0  0  0  0  0  0  0  0  0
   -0.2750   -2.2667    0.0000 C   0  0  0  0  0  0  0  0  0  0  0  0
    3.8250   -3.3042    0.0000 C   0  0  0  0  0  0  0  0  0  0  0  0
    5.9375   -2.0375    0.0000 C   0  0  0  0  0  0  0  0  0  0  0  0
    0.5042   -2.0042    0.0000 C   0  0  0  0  0  0  0  0  0  0  0  0
  2  1  1  0
  3  2  1  0
  4  1  1  0
  5  4  1  0
  6  3  1  0
  7  2  2  0
  8  3  2  0
  9  5  2  0
 10 15  1  0
 11  1  1  0
 12  5  1  0
 13 21  1  0
 14  4  1  0
 15 13  2  0
 16  6  1  0
 17  6  1  0
 18  6  1  0
 19 25  1  0
 20 12  1  0
 21 24  1  0
 22 13  1  0
 23 11  1  0
 24 20  1  0
 25 22  2  0
 26 23  1  0
 14 26  1  0
 10 19  2  0
M  END

> <chembl_id>
CHEMBL6740

> <chembl_pref_name>
None

$$$$

     RDKit          2D

 18 20  0  0  0  0  0  0  0  0999 V2000
    6.5875   -7.2750    0.0000 N   0  0  0  0  0  0  0  0  0  0  0  0
    7.3500   -6.8292    0.0000 C   0  0  0  0  0  0  0  0  0  0  0  0
    8.1167   -7.2667    0.0000 N   0  0  0  0  0  0  0  0  0  0  0  0
    6.5792   -5.5042    0.0000 N   0  0  0  0  0  0  0  0  0  0  0  0
    2.7625   -5.0667    0.0000 N   0  0  0  0  0  0  0  0  0  0  0  0
    5.8167   -6.8292    0.0000 C   0  0  0  0  0  0  0  0  0  0  0  0
    5.8167   -5.9500    0.0000 C   0  0  0  0  0  0  0  0  0  0  0  0
    3.5292   -5.5125    0.0000 C   0  0  0  0  0  0  0  0  0  0  0  0
    7.3417   -5.9417    0.0000 C   0  0  0  0  0  0  0  0  0  0  0  0
    9.6417   -8.1417    0.0000 N   0  0  0  0  0  0  0  0  0  0  0  0
    5.0542   -5.5042    0.0000 C   0  0  0  0  0  0  0  0  0  0  0  0
    4.2917   -5.9500    0.0000 C   0  0  0  0  0  0  0  0  0  0  0  0
    5.0542   -7.2792    0.0000 C   0  0  0  0  0  0  0  0  0  0  0  0
    4.2917   -6.8375    0.0000 C   0  0  0  0  0  0  0  0  0  0  0  0
    8.1167   -8.1500    0.0000 C   0  0  0  0  0  0  0  0  0  0  0  0
    8.8750   -6.8167    0.0000 C   0  0  0  0  0  0  0  0  0  0  0  0
    9.6417   -7.2625    0.0000 C   0  0  0  0  0  0  0  0  0  0  0  0
    8.8792   -8.5875    0.0000 C   0  0  0  0  0  0  0  0  0  0  0  0
  2  1  2  0
  3  2  1  0
  4  7  1  0
  5  8  3  0
  6  1  1  0
  7  6  1  0
  8 12  1  0
  9  2  1  0
 10 17  1  0
 11  7  2  0
 12 14  2  0
 13  6  2  0
 14 13  1  0
 15  3  1  0
 16  3  1  0
 17 16  1  0
 18 15  1  0
  4  9  2  0
 12 11  1  0
 10 18  1  0
M  END

> <chembl_id>
CHEMBL7055

> <chembl_pref_name>
None

$$$$

     RDKit          2D

 17 19  0  0  0  0  0  0  0  0999 V2000
    6.5875   -7.2750    0.0000 N   0  0  0  0  0  0  0  0  0  0  0  0
    7.3500   -6.8292    0.0000 C   0  0  0  0  0  0  0  0  0  0  0  0
    6.5792   -5.5042    0.0000 N   0  0  0  0  0  0  0  0  0  0  0  0
    5.8167   -5.9500    0.0000 C   0  0  0  0  0  0  0  0  0  0  0  0
    8.1167   -7.2667    0.0000 N   0  0  0  0  0  0  0  0  0  0  0  0
    5.8167   -6.8292    0.0000 C   0  0  0  0  0  0  0  0  0  0  0  0
    7.3417   -5.9417    0.0000 C   0  0  0  0  0  0  0  0  0  0  0  0
    5.0542   -5.5042    0.0000 C   0  0  0  0  0  0  0  0  0  0  0  0
    9.6417   -8.1417    0.0000 N   0  0  0  0  0  0  0  0  0  0  0  0
    5.0500   -4.6250    0.0000 F   0  0  0  0  0  0  0  0  0  0  0  0
    8.8750   -6.8167    0.0000 C   0  0  0  0  0  0  0  0  0  0  0  0
    8.1167   -8.1500    0.0000 C   0  0  0  0  0  0  0  0  0  0  0  0
    5.0542   -7.2792    0.0000 C   0  0  0  0  0  0  0  0  0  0  0  0
    4.2917   -6.8375    0.0000 C   0  0  0  0  0  0  0  0  0  0  0  0
    8.8792   -8.5875    0.0000 C   0  0  0  0  0  0  0  0  0  0  0  0
    9.6417   -7.2625    0.0000 C   0  0  0  0  0  0  0  0  0  0  0  0
    4.2917   -5.9500    0.0000 C   0  0  0  0  0  0  0  0  0  0  0  0
  2  1  2  0
  3  4  1  0
  4  6  1  0
  5  2  1  0
  6  1  1  0
  7  2  1  0
  8  4  2  0
  9 15  1  0
 10  8  1  0
 11  5  1  0
 12  5  1  0
 13  6  2  0
 14 13  1  0
 15 12  1  0
 16 11  1  0
 17 14  2  0
  3  7  2  0
 17  8  1  0
 16  9  1  0
M  END

> <chembl_id>
CHEMBL7056

> <chembl_pref_name>
None

$$$$

     RDKit          2D

 17 19  0  0  0  0  0  0  0  0999 V2000
    2.4036   -5.0573    0.0000 N   0  0  0  0  0  0  0  0  0  0  0  0
    3.1158   -4.6409    0.0000 C   0  0  0  0  0  0  0  0  0  0  0  0
    2.3958   -3.4033    0.0000 N   0  0  0  0  0  0  0  0  0  0  0  0
    1.6836   -3.8197    0.0000 C   0  0  0  0  0  0  0  0  0  0  0  0
    3.8319   -5.0496    0.0000 N   0  0  0  0  0  0  0  0  0  0  0  0
    1.6836   -4.6409    0.0000 C   0  0  0  0  0  0  0  0  0  0  0  0
    3.1081   -3.8120    0.0000 C   0  0  0  0  0  0  0  0  0  0  0  0
    0.9714   -3.4033    0.0000 C   0  0  0  0  0  0  0  0  0  0  0  0
    5.2564   -5.8669    0.0000 N   0  0  0  0  0  0  0  0  0  0  0  0
    0.9675   -2.5821    0.0000 Cl  0  0  0  0  0  0  0  0  0  0  0  0
    4.5402   -4.6292    0.0000 C   0  0  0  0  0  0  0  0  0  0  0  0
    3.8319   -5.8746    0.0000 C   0  0  0  0  0  0  0  0  0  0  0  0
    0.9714   -5.0612    0.0000 C   0  0  0  0  0  0  0  0  0  0  0  0
    0.2592   -4.6487    0.0000 C   0  0  0  0  0  0  0  0  0  0  0  0
    4.5441   -6.2833    0.0000 C   0  0  0  0  0  0  0  0  0  0  0  0
    5.2564   -5.0456    0.0000 C   0  0  0  0  0  0  0  0  0  0  0  0
    0.2592   -3.8197    0.0000 C   0  0  0  0  0  0  0  0  0  0  0  0
  2  1  2  0
  3  4  1  0
  4  6  1  0
  5  2  1  0
  6  1  1  0
  7  2  1  0
  8  4  2  0
  9 15  1  0
 10  8  1  0
 11  5  1  0
 12  5  1  0
 13  6  2  0
 14 13  1  0
 15 12  1  0
 16 11  1  0
 17 14  2  0
  3  7  2  0
 17  8  1  0
 16  9  1  0
M  END

> <chembl_id>
CHEMBL266543

> <chembl_pref_name>
None

$$$$

     RDKit          2D

 36 39  0  0  0  0  0  0  0  0999 V2000
    0.8375   -4.1542    0.0000 C   0  0  0  0  0  0  0  0  0  0  0  0
    1.5417   -4.5667    0.0000 C   0  0  0  0  0  0  0  0  0  0  0  0
    0.1250   -4.5667    0.0000 N   0  0  0  0  0  0  0  0  0  0  0  0
    0.8250   -5.8042    0.0000 N   0  0  0  0  0  0  0  0  0  0  0  0
    1.5375   -5.3917    0.0000 C   0  0  0  0  0  0  0  0  0  0  0  0
    0.1167   -5.3792    0.0000 C   0  0  0  0  0  0  0  0  0  0  0  0
    7.2417   -2.8917    0.0000 C   0  0  0  0  0  0  0  0  0  0  0  0
   10.0917   -0.4167    0.0000 C   0  0  0  0  0  0  0  0  0  0  0  0
    4.3917   -4.5542    0.0000 N   0  0  0  0  0  0  0  0  0  0  0  0
    5.0917   -5.8167    0.0000 C   0  0  0  0  0  0  0  0  0  0  0  0
    5.7917   -6.2667    0.0000 C   0  0  0  0  0  0  0  0  0  0  0  0
    7.9542   -3.3042    0.0000 N   0  0  0  0  0  0  0  0  0  0  0  0
    9.3792   -0.8292    0.0000 C   0  0  0  0  0  0  0  0  0  0  0  0
    2.2417   -4.1542    0.0000 C   0  0  0  0  0  0  0  0  0  0  0  0
    6.5292   -3.3167    0.0000 C   0  0  0  0  0  0  0  0  0  0  0  0
    5.1042   -4.1417    0.0000 C   0  0  0  0  0  0  0  0  0  0  0  0
    0.8417   -3.3292    0.0000 O   0  0  0  0  0  0  0  0  0  0  0  0
    3.6792   -4.1417    0.0000 C   0  0  0  0  0  0  0  0  0  0  0  0
    2.9542   -4.5667    0.0000 C   0  0  0  0  0  0  0  0  0  0  0  0
    9.3792   -1.6542    0.0000 C   0  0  0  0  0  0  0  0  0  0  0  0
    7.2417   -2.0667    0.0000 O   0  0  0  0  0  0  0  0  0  0  0  0
   10.0792    0.4083    0.0000 O   0  0  0  0  0  0  0  0  0  0  0  0
    2.2417   -5.8042    0.0000 C   0  0  0  0  0  0  0  0  0  0  0  0
    5.8042   -2.9042    0.0000 C   0  0  0  0  0  0  0  0  0  0  0  0
    6.5292   -4.1417    0.0000 C   0  0  0  0  0  0  0  0  0  0  0  0
    5.0917   -3.3167    0.0000 C   0  0  0  0  0  0  0  0  0  0  0  0
    5.8167   -4.5542    0.0000 C   0  0  0  0  0  0  0  0  0  0  0  0
    8.6667   -2.8917    0.0000 C   0  0  0  0  0  0  0  0  0  0  0  0
    4.3917   -5.3792    0.0000 C   0  0  0  0  0  0  0  0  0  0  0  0
   10.8042   -0.8167    0.0000 O   0  0  0  0  0  0  0  0  0  0  0  0
    8.6667   -2.0667    0.0000 C   0  0  0  0  0  0  0  0  0  0  0  0
    2.9542   -5.3917    0.0000 C   0  0  0  0  0  0  0  0  0  0  0  0
   -0.6000   -5.7917    0.0000 C   0  0  0  0  0  0  0  0  0  0  0  0
    8.6542   -0.4167    0.0000 C   0  0  0  0  0  0  0  0  0  0  0  0
    7.9417   -0.8417    0.0000 C   0  0  0  0  0  0  0  0  0  0  0  0
    7.9542   -1.6542    0.0000 C   0  0  0  0  0  0  0  0  0  0  0  0
  2  1  1  0
  3  1  2  0
  4  6  2  0
  5  2  2  0
  6  3  1  0
  7 15  1  0
  8 13  1  0
  9 18  1  0
 10 29  1  0
 11 10  3  0
 12  7  1  0
 13 20  1  0
 14  2  1  0
 15 25  2  0
 16  9  1  0
 17  1  1  0
 18 19  1  0
 19 14  2  0
 20 31  2  0
 21  7  2  0
 22  8  2  0
 23  5  1  0
 24 26  2  0
 25 27  1  0
 26 16  1  0
 27 16  2  0
 28 12  1  0
 29  9  1  0
 30  8  1  0
 31 28  1  0
 32 19  1  0
 33  6  1  0
 34 35  1  0
 35 36  2  0
 36 31  1  0
  4  5  1  0
 32 23  2  0
 24 15  1  0
 34 13  2  0
M  END

> <chembl_id>
CHEMBL6850

> <chembl_pref_name>
None

$$$$

     RDKit          2D

 16 17  0  0  0  0  0  0  0  0999 V2000
    5.4500   -3.5917    0.0000 C   0  0  0  0  0  0  0  0  0  0  0  0
    4.0292   -3.5917    0.0000 N   0  0  0  0  0  0  0  0  0  0  0  0
    4.0292   -4.4167    0.0000 N   0  0  0  0  0  0  0  0  0  0  0  0
    5.4500   -4.4167    0.0000 C   0  0  0  0  0  0  0  0  0  0  0  0
    4.7375   -3.1750    0.0000 C   0  0  0  0  0  0  0  0  0  0  0  0
    6.1667   -3.1792    0.0000 C   0  0  0  0  0  0  0  0  0  0  0  0
    4.7375   -4.8250    0.0000 C   0  0  0  0  0  0  0  0  0  0  0  0
    6.1667   -2.3542    0.0000 O   0  0  0  0  0  0  0  0  0  0  0  0
    4.7417   -7.3000    0.0000 N   0  0  0  0  0  0  0  0  0  0  0  0
    4.7375   -5.6500    0.0000 C   0  0  0  0  0  0  0  0  0  0  0  0
    6.8792   -3.5917    0.0000 N   0  0  0  0  0  0  0  0  0  0  0  0
    4.7375   -2.3500    0.0000 Cl  0  0  0  0  0  0  0  0  0  0  0  0
    5.4542   -6.8875    0.0000 C   0  0  0  0  0  0  0  0  0  0  0  0
    4.0292   -6.8917    0.0000 C   0  0  0  0  0  0  0  0  0  0  0  0
    4.0292   -6.0625    0.0000 C   0  0  0  0  0  0  0  0  0  0  0  0
    5.4542   -6.0625    0.0000 C   0  0  0  0  0  0  0  0  0  0  0  0
  2  5  2  0
  3  2  1  0
  4  1  2  0
  5  1  1  0
  6  1  1  0
  7  4  1  0
  8  6  2  0
  9 13  1  0
 10  7  1  0
 11  6  1  0
 12  5  1  0
 13 16  2  0
 14 15  1  0
 15 10  2  0
 16 10  1  0
  3  7  2  0
 14  9  2  0
M  END

> <chembl_id>
CHEMBL6847

> <chembl_pref_name>
None

$$$$

     RDKit          2D

 28 29  0  0  1  0  0  0  0  0999 V2000
    3.6667    0.7000    0.0000 S   0  0  0  0  0  0  0  0  0  0  0  0
    2.9542   -0.5375    0.0000 N   0  0  0  0  0  0  0  0  0  0  0  0
    2.9542    0.2875    0.0000 C   0  0  0  0  0  0  0  0  0  0  0  0
    2.1292    0.2875    0.0000 C   0  0  0  0  0  0  0  0  0  0  0  0
    2.1292   -0.5375    0.0000 C   0  0  0  0  0  0  0  0  0  0  0  0
    3.6667   -0.9500    0.0000 C   0  0  0  0  0  0  0  0  0  0  0  0
    4.3792   -0.5375    0.0000 C   0  0  0  0  0  0  0  0  0  0  0  0
    3.6667   -1.7750    0.0000 C   0  0  0  0  0  0  0  0  0  0  0  0
    1.4167    0.6958    0.0000 C   0  0  0  0  0  0  0  0  0  0  0  0
    4.3792    0.2875    0.0000 C   0  0  0  0  0  0  0  0  0  0  0  0
   -0.0083    0.6833    0.0000 C   0  0  0  0  0  0  0  0  0  0  0  0
    4.3792    1.1125    0.0000 O   0  0  0  0  0  0  0  0  0  0  0  0
    2.8667    0.9208    0.0000 O   0  0  0  0  0  0  0  0  0  0  0  0
    2.9542   -2.1875    0.0000 O   0  0  0  0  0  0  0  0  0  0  0  0
    0.7125    0.2750    0.0000 O   0  0  0  0  0  0  0  0  0  0  0  0
    1.5500   -1.1167    0.0000 O   0  0  0  0  0  0  0  0  0  0  0  0
   -0.0208    1.4958    0.0000 C   0  0  0  0  0  0  0  0  0  0  0  0
    4.3792   -2.1875    0.0000 O   0  0  0  0  0  0  0  0  0  0  0  0
   -0.7208    0.2583    0.0000 O   0  0  0  0  0  0  0  0  0  0  0  0
    2.9542   -3.0167    0.0000 C   0  0  0  0  0  0  0  0  0  0  0  0
    5.1042   -0.9500    0.0000 C   0  0  0  0  0  0  0  0  0  0  0  0
    0.8042    1.5083    0.0000 C   0  0  0  0  0  0  0  0  0  0  0  0
   -0.0333    2.3208    0.0000 C   0  0  0  0  0  0  0  0  0  0  0  0
   -0.8458    1.4833    0.0000 C   0  0  0  0  0  0  0  0  0  0  0  0
    2.9542   -3.8417    0.0000 C   0  0  0  0  0  0  0  0  0  0  0  0
    2.1292   -3.0167    0.0000 C   0  0  0  0  0  0  0  0  0  0  0  0
    3.7792   -3.0167    0.0000 C   0  0  0  0  0  0  0  0  0  0  0  0
    2.6948    1.2533    0.0000 H   0  0  0  0  0  0  0  0  0  0  0  0
  2  3  1  0
  3  1  1  0
  4  3  1  0
  5  4  1  0
  6  7  2  0
  7 10  1  0
  8  6  1  0
  9  4  2  0
 10  1  1  0
 11 15  1  0
 12  1  2  0
 13  1  2  0
 14  8  1  0
 15  9  1  0
 16  5  2  0
 17 11  1  0
 18  8  2  0
 19 11  2  0
 20 14  1  0
 21  7  1  0
 22 17  1  0
 23 17  1  0
 24 17  1  0
 25 20  1  0
 26 20  1  0
 27 20  1  0
  2  6  1  0
  2  5  1  0
  3 28  1  6
M  END

> <chembl_id>
CHEMBL6865

> <chembl_pref_name>
None

$$$$

     RDKit          2D

 10 11  0  0  0  0  0  0  0  0999 V2000
    5.0417   -4.2417    0.0000 C   0  0  0  0  0  0  0  0  0  0  0  0
    4.4000   -3.8542    0.0000 C   0  0  0  0  0  0  0  0  0  0  0  0
    4.7042   -4.9292    0.0000 C   0  0  0  0  0  0  0  0  0  0  0  0
    4.1000   -4.6125    0.0000 C   0  0  0  0  0  0  0  0  0  0  0  0
    4.2250   -3.1667    0.0000 C   0  0  0  0  0  0  0  0  0  0  0  0
    3.7042   -4.2292    0.0000 C   0  0  0  0  0  0  0  0  0  0  0  0
    3.4000   -4.8667    0.0000 C   0  0  0  0  0  0  0  0  0  0  0  0
    5.7125   -4.4917    0.0000 N   0  0  0  0  0  0  0  0  0  0  0  0
    5.4167   -5.3417    0.0000 C   0  0  0  0  0  0  0  0  0  0  0  0
    5.8250   -5.2000    0.0000 C   0  0  0  0  0  0  0  0  0  0  0  0
  2  1  1  0
  3  1  1  0
  4  3  1  0
  5  2  1  0
  6  2  1  0
  7  4  1  0
  8  1  1  0
  9  3  1  0
 10  8  1  0
  4  5  1  0
  7  6  1  0
M  END

> <chembl_id>
CHEMBL6820

> <chembl_pref_name>
None

$$$$

     RDKit          2D

 13 14  0  0  0  0  0  0  0  0999 V2000
    5.0417   -4.2417    0.0000 C   0  0  0  0  0  0  0  0  0  0  0  0
    4.7042   -4.9292    0.0000 C   0  0  0  0  0  0  0  0  0  0  0  0
    4.4000   -3.8542    0.0000 C   0  0  0  0  0  0  0  0  0  0  0  0
    4.1000   -4.6125    0.0000 C   0  0  0  0  0  0  0  0  0  0  0  0
    4.2250   -3.1667    0.0000 C   0  0  0  0  0  0  0  0  0  0  0  0
    5.4292   -3.5750    0.0000 N   0  0  0  0  0  0  0  0  0  0  0  0
    3.7042   -4.2292    0.0000 C   0  0  0  0  0  0  0  0  0  0  0  0
    3.4000   -4.8667    0.0000 C   0  0  0  0  0  0  0  0  0  0  0  0
    5.5875   -4.7792    0.0000 C   0  0  0  0  0  0  0  0  0  0  0  0
    4.7000   -5.7542    0.0000 C   0  0  0  0  0  0  0  0  0  0  0  0
    5.4167   -5.3417    0.0000 C   0  0  0  0  0  0  0  0  0  0  0  0
    5.0417   -2.9042    0.0000 C   0  0  0  0  0  0  0  0  0  0  0  0
    6.1917   -3.5667    0.0000 C   0  0  0  0  0  0  0  0  0  0  0  0
  2  1  1  0
  3  1  1  0
  4  2  1  0
  5  3  1  0
  6  1  1  0
  7  3  1  0
  8  7  1  0
  9  1  1  0
 10  2  1  0
 11  2  1  0
 12  6  1  0
 13  6  1  0
  4  5  1  0
  8  4  1  0
M  END

> <chembl_id>
CHEMBL538393

> <chembl_pref_name>
DIMECAMINE

$$$$

     RDKit          2D

 14 14  0  0  1  0  0  0  0  0999 V2000
    4.8667   -2.6167    0.0000 C   0  0  0  0  0  0  0  0  0  0  0  0
    4.3417   -2.3167    0.0000 C   0  0  0  0  0  0  0  0  0  0  0  0
    4.8667   -3.2167    0.0000 C   0  0  0  0  0  0  0  0  0  0  0  0
    5.3875   -2.3167    0.0000 C   0  0  0  0  0  0  0  0  0  0  0  0
    3.8292   -2.6167    0.0000 C   0  0  0  0  0  0  0  0  0  0  0  0
    4.3417   -3.5167    0.0000 C   0  0  0  0  0  0  0  0  0  0  0  0
    3.8292   -3.2167    0.0000 C   0  0  0  0  0  0  0  0  0  0  0  0
    6.4167   -2.3042    0.0000 N   0  0  0  0  0  0  0  0  0  0  0  0
    4.3417   -1.7167    0.0000 O   0  0  0  0  0  0  0  0  0  0  0  0
    5.9042   -2.6042    0.0000 C   0  0  0  0  0  0  0  0  0  0  0  0
    4.3417   -4.1167    0.0000 O   0  0  0  0  0  0  0  0  0  0  0  0
    3.8250   -1.4167    0.0000 C   0  0  0  0  0  0  0  0  0  0  0  0
    4.8625   -4.4167    0.0000 C   0  0  0  0  0  0  0  0  0  0  0  0
    5.9042   -3.2000    0.0000 C   0  0  0  0  0  0  0  0  0  0  0  0
  2  1  2  0
  3  1  1  0
  4  1  1  0
  5  2  1  0
  6  3  2  0
  7  6  1  0
  8 10  1  0
  9  2  1  0
 10  4  1  0
 11  6  1  0
 12  9  1  0
 13 11  1  0
 10 14  1  6
  5  7  2  0
M  END

> <chembl_id>
CHEMBL6737

> <chembl_pref_name>
None

$$$$

     RDKit          2D

 27 30  0  0  0  0  0  0  0  0999 V2000
    3.6632   -4.2901    0.0000 C   0  0  0  0  0  0  0  0  0  0  0  0
    3.6710   -5.1190    0.0000 C   0  0  0  0  0  0  0  0  0  0  0  0
    2.9587   -5.5354    0.0000 N   0  0  0  0  0  0  0  0  0  0  0  0
    2.9510   -3.8814    0.0000 N   0  0  0  0  0  0  0  0  0  0  0  0
    0.0982   -3.8814    0.0000 C   0  0  0  0  0  0  0  0  0  0  0  0
    4.3871   -5.5277    0.0000 N   0  0  0  0  0  0  0  0  0  0  0  0
    2.2388   -4.2978    0.0000 C   0  0  0  0  0  0  0  0  0  0  0  0
    2.2388   -5.1190    0.0000 C   0  0  0  0  0  0  0  0  0  0  0  0
    0.8144   -4.2978    0.0000 C   0  0  0  0  0  0  0  0  0  0  0  0
    4.3754   -3.8697    0.0000 S   0  0  0  0  0  0  0  0  0  0  0  0
    1.5266   -3.8814    0.0000 C   0  0  0  0  0  0  0  0  0  0  0  0
    5.8115   -6.3450    0.0000 N   0  0  0  0  0  0  0  0  0  0  0  0
    0.8144   -5.1268    0.0000 C   0  0  0  0  0  0  0  0  0  0  0  0
    1.5266   -5.5393    0.0000 C   0  0  0  0  0  0  0  0  0  0  0  0
    0.0905   -3.0602    0.0000 F   0  0  0  0  0  0  0  0  0  0  0  0
   -0.7268   -3.8814    0.0000 F   0  0  0  0  0  0  0  0  0  0  0  0
   -0.3182   -4.5936    0.0000 F   0  0  0  0  0  0  0  0  0  0  0  0
    4.3754   -3.0485    0.0000 C   0  0  0  0  0  0  0  0  0  0  0  0
    4.3871   -6.3527    0.0000 C   0  0  0  0  0  0  0  0  0  0  0  0
    5.0954   -5.1074    0.0000 C   0  0  0  0  0  0  0  0  0  0  0  0
    5.8115   -5.5237    0.0000 C   0  0  0  0  0  0  0  0  0  0  0  0
    5.0993   -6.7614    0.0000 C   0  0  0  0  0  0  0  0  0  0  0  0
    5.0876   -2.6321    0.0000 C   0  0  0  0  0  0  0  0  0  0  0  0
    3.6593   -2.6438    0.0000 C   0  0  0  0  0  0  0  0  0  0  0  0
    3.6515   -1.8226    0.0000 C   0  0  0  0  0  0  0  0  0  0  0  0
    5.0837   -1.8109    0.0000 C   0  0  0  0  0  0  0  0  0  0  0  0
    4.3637   -1.4023    0.0000 C   0  0  0  0  0  0  0  0  0  0  0  0
  2  1  1  0
  3  2  2  0
  4  1  2  0
  5  9  1  0
  6  2  1  0
  7  4  1  0
  8  7  1  0
  9 11  1  0
 10  1  1  0
 11  7  2  0
 12 21  1  0
 13  9  2  0
 14  8  2  0
 15  5  1  0
 16  5  1  0
 17  5  1  0
 18 10  1  0
 19  6  1  0
 20  6  1  0
 21 20  1  0
 22 19  1  0
 23 18  2  0
 24 18  1  0
 25 24  2  0
 26 23  1  0
 27 25  1  0
  3  8  1  0
 13 14  1  0
 12 22  1  0
 27 26  2  0
M  END

> <chembl_id>
CHEMBL269153

> <chembl_pref_name>
None

$$$$

     RDKit          2D

 25 26  0  0  0  0  0  0  0  0999 V2000
    5.7292   -4.6542    0.0000 Cl  0  0  0  0  0  0  0  0  0  0  0  0
    3.0875   -5.4375    0.0000 C   0  0  0  0  0  0  0  0  0  0  0  0
    3.0875   -4.8375    0.0000 C   0  0  0  0  0  0  0  0  0  0  0  0
    3.6042   -4.5292    0.0000 C   0  0  0  0  0  0  0  0  0  0  0  0
    3.6042   -5.7375    0.0000 C   0  0  0  0  0  0  0  0  0  0  0  0
    4.1250   -5.4375    0.0000 C   0  0  0  0  0  0  0  0  0  0  0  0
    4.1250   -4.8292    0.0000 C   0  0  0  0  0  0  0  0  0  0  0  0
    2.5667   -5.7375    0.0000 O   0  0  0  0  0  0  0  0  0  0  0  0
    2.5667   -4.5375    0.0000 C   0  0  0  0  0  0  0  0  0  0  0  0
    2.0500   -5.4375    0.0000 C   0  0  0  0  0  0  0  0  0  0  0  0
    2.0500   -4.8292    0.0000 C   0  0  0  0  0  0  0  0  0  0  0  0
    4.7000   -5.6250    0.0000 O   0  0  0  0  0  0  0  0  0  0  0  0
    3.6000   -3.9292    0.0000 C   0  0  0  0  0  0  0  0  0  0  0  0
    4.1167   -3.6292    0.0000 N   0  0  0  0  0  0  0  0  0  0  0  0
    4.7000   -4.6417    0.0000 C   0  0  0  0  0  0  0  0  0  0  0  0
    5.0542   -5.1292    0.0000 C   0  0  0  0  0  0  0  0  0  0  0  0
    1.5292   -5.7375    0.0000 O   0  0  0  0  0  0  0  0  0  0  0  0
    3.6042   -6.3375    0.0000 O   0  0  0  0  0  0  0  0  0  0  0  0
    4.1167   -3.0292    0.0000 C   0  0  0  0  0  0  0  0  0  0  0  0
    4.6417   -3.9292    0.0000 C   0  0  0  0  0  0  0  0  0  0  0  0
    4.8042   -3.5292    0.0000 C   0  0  0  0  0  0  0  0  0  0  0  0
    3.0875   -6.6375    0.0000 C   0  0  0  0  0  0  0  0  0  0  0  0
    4.6292   -2.7292    0.0000 C   0  0  0  0  0  0  0  0  0  0  0  0
    5.3375   -3.9917    0.0000 C   0  0  0  0  0  0  0  0  0  0  0  0
    4.6417   -4.5292    0.0000 C   0  0  0  0  0  0  0  0  0  0  0  0
  3  2  2  0
  4  3  1  0
  5  2  1  0
  6  5  2  0
  7  6  1  0
  8  2  1  0
  9  3  1  0
 10  8  1  0
 11 10  1  0
 12  6  1  0
 13  4  1  0
 14 13  1  0
 15  7  1  0
 16 12  1  0
 17 10  2  0
 18  5  1  0
 19 14  1  0
 20 14  1  0
 21 14  1  0
 22 18  1  0
 23 19  1  0
 24 21  1  0
 25 20  1  0
  9 11  2  0
  4  7  2  0
 16 15  2  0
M  CHG  2   1  -1  14   1
M  END

> <chembl_id>
CHEMBL6797

> <chembl_pref_name>
None

$$$$

     RDKit          2D

 28 30  0  0  0  0  0  0  0  0999 V2000
    5.4042   -2.1250    0.0000 N   0  0  0  0  0  0  0  0  0  0  0  0
    1.8250   -0.9042    0.0000 C   0  0  0  0  0  0  0  0  0  0  0  0
   -1.7458   -2.1667    0.0000 S   0  0  0  0  0  0  0  0  0  0  0  0
   -1.0333   -0.9250    0.0000 C   0  0  0  0  0  0  0  0  0  0  0  0
   -1.7458   -0.5125    0.0000 C   0  0  0  0  0  0  0  0  0  0  0  0
   -1.0333   -1.7500    0.0000 C   0  0  0  0  0  0  0  0  0  0  0  0
    4.6792   -1.7167    0.0000 C   0  0  0  0  0  0  0  0  0  0  0  0
    2.5375   -0.4917    0.0000 N   0  0  0  0  0  0  0  0  0  0  0  0
   -2.4583   -1.7542    0.0000 C   0  0  0  0  0  0  0  0  0  0  0  0
    3.2542   -0.9000    0.0000 C   0  0  0  0  0  0  0  0  0  0  0  0
    1.1042   -0.5000    0.0000 N   0  0  0  0  0  0  0  0  0  0  0  0
    4.6750   -0.8875    0.0000 C   0  0  0  0  0  0  0  0  0  0  0  0
    3.9542   -0.4792    0.0000 C   0  0  0  0  0  0  0  0  0  0  0  0
   -2.4583   -0.9250    0.0000 C   0  0  0  0  0  0  0  0  0  0  0  0
    5.4125   -2.9500    0.0000 O   0  0  0  0  0  0  0  0  0  0  0  0
    1.8292   -1.7292    0.0000 S   0  0  0  0  0  0  0  0  0  0  0  0
    6.1167   -1.7042    0.0000 O   0  0  0  0  0  0  0  0  0  0  0  0
   -0.3208   -0.5042    0.0000 C   0  0  0  0  0  0  0  0  0  0  0  0
    0.3917   -0.9167    0.0000 C   0  0  0  0  0  0  0  0  0  0  0  0
   -0.3125   -2.1625    0.0000 C   0  0  0  0  0  0  0  0  0  0  0  0
    3.9667   -2.1292    0.0000 C   0  0  0  0  0  0  0  0  0  0  0  0
    3.2542   -1.7250    0.0000 C   0  0  0  0  0  0  0  0  0  0  0  0
    0.4000   -1.7417    0.0000 C   0  0  0  0  0  0  0  0  0  0  0  0
   -1.1625    0.0750    0.0000 C   0  0  0  0  0  0  0  0  0  0  0  0
   -2.3333    0.0750    0.0000 C   0  0  0  0  0  0  0  0  0  0  0  0
   -3.1750   -1.3417    0.0000 C   0  0  0  0  0  0  0  0  0  0  0  0
   -3.1750   -2.1667    0.0000 C   0  0  0  0  0  0  0  0  0  0  0  0
    3.9500    0.3458    0.0000 C   0  0  0  0  0  0  0  0  0  0  0  0
  2  8  2  0
  3  6  1  0
  4 18  2  0
  5  4  1  0
  6 20  2  0
  7  1  1  0
  8 10  1  0
  9  3  1  0
 10 22  1  0
 11  2  1  0
 12  7  2  0
 13 12  1  0
 14  5  1  0
 15  1  1  0
 16  2  1  0
 17  1  2  0
 18 19  1  0
 19 11  1  0
 20 23  1  0
 21  7  1  0
 22 21  2  0
 23 19  2  0
 24  5  1  0
 25  5  1  0
 26  9  1  0
 27  9  1  0
 28 13  1  0
 13 10  2  0
  4  6  1  0
 14  9  1  0
M  CHG  2   1   1  15  -1
M  END

> <chembl_id>
CHEMBL7074

> <chembl_pref_name>
None

$$$$

     RDKit          2D

 27 29  0  0  0  0  0  0  0  0999 V2000
    3.8875   -2.2542    0.0000 N   0  0  0  0  0  0  0  0  0  0  0  0
   -3.2625   -2.3000    0.0000 S   0  0  0  0  0  0  0  0  0  0  0  0
   -2.5458   -1.0542    0.0000 C   0  0  0  0  0  0  0  0  0  0  0  0
    0.3042   -1.0417    0.0000 C   0  0  0  0  0  0  0  0  0  0  0  0
   -3.2625   -0.6417    0.0000 C   0  0  0  0  0  0  0  0  0  0  0  0
   -2.5458   -1.8792    0.0000 C   0  0  0  0  0  0  0  0  0  0  0  0
   -3.9750   -1.8875    0.0000 C   0  0  0  0  0  0  0  0  0  0  0  0
    3.1667   -1.8500    0.0000 C   0  0  0  0  0  0  0  0  0  0  0  0
   -0.4083   -0.6292    0.0000 N   0  0  0  0  0  0  0  0  0  0  0  0
   -3.9750   -1.0625    0.0000 C   0  0  0  0  0  0  0  0  0  0  0  0
    1.0167   -0.6250    0.0000 N   0  0  0  0  0  0  0  0  0  0  0  0
    3.8917   -3.0792    0.0000 O   0  0  0  0  0  0  0  0  0  0  0  0
    0.3125   -1.8667    0.0000 S   0  0  0  0  0  0  0  0  0  0  0  0
    4.6000   -1.8417    0.0000 O   0  0  0  0  0  0  0  0  0  0  0  0
   -1.8458   -0.6417    0.0000 C   0  0  0  0  0  0  0  0  0  0  0  0
   -1.1208   -1.0500    0.0000 C   0  0  0  0  0  0  0  0  0  0  0  0
   -1.8333   -2.2917    0.0000 C   0  0  0  0  0  0  0  0  0  0  0  0
    3.1542   -1.0167    0.0000 C   0  0  0  0  0  0  0  0  0  0  0  0
    2.4542   -2.2667    0.0000 C   0  0  0  0  0  0  0  0  0  0  0  0
    1.7375   -1.0292    0.0000 C   0  0  0  0  0  0  0  0  0  0  0  0
   -1.1208   -1.8792    0.0000 C   0  0  0  0  0  0  0  0  0  0  0  0
    2.4417   -0.6167    0.0000 C   0  0  0  0  0  0  0  0  0  0  0  0
    1.7375   -1.8542    0.0000 C   0  0  0  0  0  0  0  0  0  0  0  0
   -2.6833   -0.0542    0.0000 C   0  0  0  0  0  0  0  0  0  0  0  0
   -3.8500   -0.0542    0.0000 C   0  0  0  0  0  0  0  0  0  0  0  0
   -4.6958   -1.4750    0.0000 C   0  0  0  0  0  0  0  0  0  0  0  0
   -4.6958   -2.3000    0.0000 C   0  0  0  0  0  0  0  0  0  0  0  0
  2  6  1  0
  3 15  2  0
  4 11  2  0
  5  3  1  0
  6 17  2  0
  7  2  1  0
  8  1  1  0
  9  4  1  0
 10  5  1  0
 11 20  1  0
 12  1  1  0
 13  4  1  0
 14  1  2  0
 15 16  1  0
 16  9  1  0
 17 21  1  0
 18  8  2  0
 19  8  1  0
 20 23  1  0
 21 16  2  0
 22 18  1  0
 23 19  2  0
 24  5  1  0
 25  5  1  0
 26  7  1  0
 27  7  1  0
 22 20  2  0
  3  6  1  0
 10  7  1  0
M  CHG  2   1   1  12  -1
M  END

> <chembl_id>
CHEMBL7075

> <chembl_pref_name>
None

$$$$

     RDKit          2D

 21 22  0  0  0  0  0  0  0  0999 V2000
    2.5292   -1.0625    0.0000 Cl  0  0  0  0  0  0  0  0  0  0  0  0
   -1.2875   -2.1875    0.0000 C   0  0  0  0  0  0  0  0  0  0  0  0
   -0.8250   -2.5625    0.0000 C   0  0  0  0  0  0  0  0  0  0  0  0
   -1.2083   -1.5875    0.0000 C   0  0  0  0  0  0  0  0  0  0  0  0
   -0.1833   -1.7542    0.0000 C   0  0  0  0  0  0  0  0  0  0  0  0
   -0.6458   -1.3792    0.0000 C   0  0  0  0  0  0  0  0  0  0  0  0
   -0.2708   -2.3417    0.0000 C   0  0  0  0  0  0  0  0  0  0  0  0
   -1.8458   -2.4000    0.0000 C   0  0  0  0  0  0  0  0  0  0  0  0
   -0.7875   -3.1542    0.0000 O   0  0  0  0  0  0  0  0  0  0  0  0
   -0.6750   -0.7792    0.0000 O   0  0  0  0  0  0  0  0  0  0  0  0
   -1.5750   -1.1250    0.0000 C   0  0  0  0  0  0  0  0  0  0  0  0
    0.1125   -2.8000    0.0000 C   0  0  0  0  0  0  0  0  0  0  0  0
   -1.2500   -0.6250    0.0000 C   0  0  0  0  0  0  0  0  0  0  0  0
   -0.2083   -3.3042    0.0000 C   0  0  0  0  0  0  0  0  0  0  0  0
    0.3792   -1.5292    0.0000 C   0  0  0  0  0  0  0  0  0  0  0  0
    1.3250   -1.5500    0.0000 N   0  0  0  0  0  0  0  0  0  0  0  0
   -1.9458   -2.9875    0.0000 F   0  0  0  0  0  0  0  0  0  0  0  0
   -2.4250   -2.5542    0.0000 F   0  0  0  0  0  0  0  0  0  0  0  0
   -2.3083   -2.0167    0.0000 F   0  0  0  0  0  0  0  0  0  0  0  0
    0.8417   -1.9000    0.0000 C   0  0  0  0  0  0  0  0  0  0  0  0
    1.0542   -2.4625    0.0000 C   0  0  0  0  0  0  0  0  0  0  0  0
  3  2  1  0
  4  2  2  0
  5  6  2  0
  6  4  1  0
  7  3  2  0
  8  2  1  0
  9  3  1  0
 10  6  1  0
 11  4  1  0
 12  7  1  0
 13 11  2  0
 14  9  1  0
 15  5  1  0
 16 20  1  0
 17  8  1  0
 18  8  1  0
 19  8  1  0
 20 15  1  0
 20 21  1  1
  5  7  1  0
 10 13  1  0
 12 14  2  0
M  END

> <chembl_id>
CHEMBL6907

> <chembl_pref_name>
None

$$$$

     RDKit          2D

 23 25  0  0  0  0  0  0  0  0999 V2000
    4.3875   -1.3542    0.0000 C   0  0  0  0  0  0  0  0  0  0  0  0
    4.9167   -0.7292    0.0000 C   0  0  0  0  0  0  0  0  0  0  0  0
    3.6167   -1.0375    0.0000 N   0  0  0  0  0  0  0  0  0  0  0  0
    2.7542   -2.2500    0.0000 C   0  0  0  0  0  0  0  0  0  0  0  0
    4.4917   -0.0292    0.0000 N   0  0  0  0  0  0  0  0  0  0  0  0
    3.3000   -2.8625    0.0000 C   0  0  0  0  0  0  0  0  0  0  0  0
    2.9000   -1.4292    0.0000 C   0  0  0  0  0  0  0  0  0  0  0  0
    4.1125   -2.8125    0.0000 N   0  0  0  0  0  0  0  0  0  0  0  0
    3.6875   -0.2167    0.0000 C   0  0  0  0  0  0  0  0  0  0  0  0
    5.7417   -0.7792    0.0000 C   0  0  0  0  0  0  0  0  0  0  0  0
    4.5917   -2.1417    0.0000 C   0  0  0  0  0  0  0  0  0  0  0  0
    1.9792   -2.5375    0.0000 C   0  0  0  0  0  0  0  0  0  0  0  0
    2.2542   -0.9042    0.0000 C   0  0  0  0  0  0  0  0  0  0  0  0
    6.1125   -1.5250    0.0000 O   0  0  0  0  0  0  0  0  0  0  0  0
    2.9875   -3.6292    0.0000 O   0  0  0  0  0  0  0  0  0  0  0  0
    6.2042   -0.0917    0.0000 O   0  0  0  0  0  0  0  0  0  0  0  0
    1.3417   -2.0125    0.0000 C   0  0  0  0  0  0  0  0  0  0  0  0
    1.4792   -1.1917    0.0000 C   0  0  0  0  0  0  0  0  0  0  0  0
    4.5042   -3.5417    0.0000 C   0  0  0  0  0  0  0  0  0  0  0  0
    0.5750   -2.2917    0.0000 Cl  0  0  0  0  0  0  0  0  0  0  0  0
    6.9292   -1.5750    0.0000 C   0  0  0  0  0  0  0  0  0  0  0  0
    7.3000   -2.3167    0.0000 C   0  0  0  0  0  0  0  0  0  0  0  0
    7.3917   -0.8875    0.0000 C   0  0  0  0  0  0  0  0  0  0  0  0
  2  1  2  0
  3  1  1  0
  4  7  2  0
  5  2  1  0
  6  8  1  0
  7  3  1  0
  8 11  1  0
  9  3  1  0
 10  2  1  0
 11  1  1  0
 12  4  1  0
 13  7  1  0
 14 10  1  0
 15  6  2  0
 16 10  2  0
 17 18  1  0
 18 13  2  0
 19  8  1  0
 20 17  1  0
 21 14  1  0
 22 21  1  0
 23 21  1  0
  5  9  2  0
  4  6  1  0
 17 12  2  0
M  END

> <chembl_id>
CHEMBL6861

> <chembl_pref_name>
None

$$$$

     RDKit          2D

 23 25  0  0  0  0  0  0  0  0999 V2000
    4.3875   -1.3542    0.0000 C   0  0  0  0  0  0  0  0  0  0  0  0
    3.6167   -1.0375    0.0000 N   0  0  0  0  0  0  0  0  0  0  0  0
    4.9167   -0.7292    0.0000 C   0  0  0  0  0  0  0  0  0  0  0  0
    2.7542   -2.2500    0.0000 C   0  0  0  0  0  0  0  0  0  0  0  0
    4.4917   -0.0292    0.0000 N   0  0  0  0  0  0  0  0  0  0  0  0
    3.3000   -2.8625    0.0000 C   0  0  0  0  0  0  0  0  0  0  0  0
    2.9000   -1.4292    0.0000 C   0  0  0  0  0  0  0  0  0  0  0  0
    4.1125   -2.8125    0.0000 N   0  0  0  0  0  0  0  0  0  0  0  0
    3.6875   -0.2167    0.0000 C   0  0  0  0  0  0  0  0  0  0  0  0
    4.5917   -2.1417    0.0000 C   0  0  0  0  0  0  0  0  0  0  0  0
    5.7417   -0.7792    0.0000 C   0  0  0  0  0  0  0  0  0  0  0  0
    1.9792   -2.5375    0.0000 C   0  0  0  0  0  0  0  0  0  0  0  0
    2.2542   -0.9042    0.0000 C   0  0  0  0  0  0  0  0  0  0  0  0
    2.9875   -3.6292    0.0000 O   0  0  0  0  0  0  0  0  0  0  0  0
    6.2042   -0.0917    0.0000 O   0  0  0  0  0  0  0  0  0  0  0  0
    1.3417   -2.0125    0.0000 C   0  0  0  0  0  0  0  0  0  0  0  0
    1.4792   -1.1917    0.0000 C   0  0  0  0  0  0  0  0  0  0  0  0
    6.1125   -1.5250    0.0000 O   0  0  0  0  0  0  0  0  0  0  0  0
    4.5042   -3.5417    0.0000 C   0  0  0  0  0  0  0  0  0  0  0  0
    0.5750   -2.2917    0.0000 Cl  0  0  0  0  0  0  0  0  0  0  0  0
    6.9292   -1.5750    0.0000 C   0  0  0  0  0  0  0  0  0  0  0  0
    7.3000   -2.3167    0.0000 C   0  0  0  0  0  0  0  0  0  0  0  0
    8.1250   -2.3667    0.0000 C   0  0  0  0  0  0  0  0  0  0  0  0
  2  1  1  0
  3  1  2  0
  4  7  2  0
  5  3  1  0
  6  8  1  0
  7  2  1  0
  8 10  1  0
  9  2  1  0
 10  1  1  0
 11  3  1  0
 12  4  1  0
 13  7  1  0
 14  6  2  0
 15 11  2  0
 16 17  1  0
 17 13  2  0
 18 11  1  0
 19  8  1  0
 20 16  1  0
 21 18  1  0
 22 21  1  0
 23 22  1  0
  5  9  2  0
  4  6  1  0
 16 12  2  0
M  END

> <chembl_id>
CHEMBL6862

> <chembl_pref_name>
None

$$$$

     RDKit          2D

 21 22  0  0  0  0  0  0  0  0999 V2000
    1.0250   -3.8417    0.0000 C   0  0  0  0  0  0  0  0  0  0  0  0
    1.5417   -4.1292    0.0000 C   0  0  0  0  0  0  0  0  0  0  0  0
    2.0625   -3.8375    0.0000 C   0  0  0  0  0  0  0  0  0  0  0  0
    0.5042   -4.1417    0.0000 C   0  0  0  0  0  0  0  0  0  0  0  0
    2.0667   -3.2292    0.0000 C   0  0  0  0  0  0  0  0  0  0  0  0
   -0.0125   -3.8417    0.0000 C   0  0  0  0  0  0  0  0  0  0  0  0
    2.5792   -4.1292    0.0000 C   0  0  0  0  0  0  0  0  0  0  0  0
    0.5042   -4.7500    0.0000 C   0  0  0  0  0  0  0  0  0  0  0  0
   -0.5333   -4.7500    0.0000 C   0  0  0  0  0  0  0  0  0  0  0  0
    3.1000   -3.2292    0.0000 C   0  0  0  0  0  0  0  0  0  0  0  0
   -0.5333   -4.1500    0.0000 C   0  0  0  0  0  0  0  0  0  0  0  0
    3.1042   -3.8375    0.0000 C   0  0  0  0  0  0  0  0  0  0  0  0
   -0.0125   -5.0500    0.0000 C   0  0  0  0  0  0  0  0  0  0  0  0
    2.5792   -2.9292    0.0000 C   0  0  0  0  0  0  0  0  0  0  0  0
    2.0667   -5.6375    0.0000 F   0  0  0  0  0  0  0  0  0  0  0  0
   -1.0500   -5.0500    0.0000 O   0  0  0  0  0  0  0  0  0  0  0  0
    3.6167   -2.9292    0.0000 O   0  0  0  0  0  0  0  0  0  0  0  0
    1.5500   -4.7375    0.0000 C   0  0  0  0  0  0  0  0  0  0  0  0
    1.0167   -3.2417    0.0000 C   0  0  0  0  0  0  0  0  0  0  0  0
    2.0667   -5.0375    0.0000 C   0  0  0  0  0  0  0  0  0  0  0  0
    0.5917   -2.8167    0.0000 C   0  0  0  0  0  0  0  0  0  0  0  0
  2  1  1  0
  3  2  1  0
  4  1  1  0
  5  3  2  0
  6  4  2  0
  7  3  1  0
  8  4  1  0
  9 13  1  0
 10 12  1  0
 11  6  1  0
 12  7  2  0
 13  8  2  0
 14  5  1  0
 15 20  1  0
 16  9  1  0
 17 10  1  0
 18  2  1  0
 19  1  1  0
 20 18  1  0
 21 19  1  0
  9 11  2  0
 14 10  2  0
M  END

> <chembl_id>
CHEMBL7192

> <chembl_pref_name>
None

$$$$

     RDKit          2D

 21 22  0  0  0  0  0  0  0  0999 V2000
    1.0250   -3.8417    0.0000 C   0  0  0  0  0  0  0  0  0  0  0  0
    1.5417   -4.1292    0.0000 C   0  0  0  0  0  0  0  0  0  0  0  0
    2.0625   -3.8375    0.0000 C   0  0  0  0  0  0  0  0  0  0  0  0
    0.5042   -4.1417    0.0000 C   0  0  0  0  0  0  0  0  0  0  0  0
    2.0667   -3.2292    0.0000 C   0  0  0  0  0  0  0  0  0  0  0  0
   -0.0125   -3.8417    0.0000 C   0  0  0  0  0  0  0  0  0  0  0  0
    2.5792   -4.1292    0.0000 C   0  0  0  0  0  0  0  0  0  0  0  0
    0.5042   -4.7500    0.0000 C   0  0  0  0  0  0  0  0  0  0  0  0
   -0.5333   -4.7500    0.0000 C   0  0  0  0  0  0  0  0  0  0  0  0
    3.1000   -3.2292    0.0000 C   0  0  0  0  0  0  0  0  0  0  0  0
   -0.5333   -4.1500    0.0000 C   0  0  0  0  0  0  0  0  0  0  0  0
    3.1042   -3.8375    0.0000 C   0  0  0  0  0  0  0  0  0  0  0  0
   -0.0125   -5.0500    0.0000 C   0  0  0  0  0  0  0  0  0  0  0  0
    2.5792   -2.9292    0.0000 C   0  0  0  0  0  0  0  0  0  0  0  0
    2.0667   -5.6375    0.0000 Cl  0  0  0  0  0  0  0  0  0  0  0  0
   -1.0500   -5.0500    0.0000 O   0  0  0  0  0  0  0  0  0  0  0  0
    3.6167   -2.9292    0.0000 O   0  0  0  0  0  0  0  0  0  0  0  0
    1.5500   -4.7375    0.0000 C   0  0  0  0  0  0  0  0  0  0  0  0
    1.0167   -3.2417    0.0000 C   0  0  0  0  0  0  0  0  0  0  0  0
    2.0667   -5.0375    0.0000 C   0  0  0  0  0  0  0  0  0  0  0  0
    0.5917   -2.8167    0.0000 C   0  0  0  0  0  0  0  0  0  0  0  0
  2  1  1  0
  3  2  1  0
  4  1  1  0
  5  3  2  0
  6  4  2  0
  7  3  1  0
  8  4  1  0
  9 13  1  0
 10 12  1  0
 11  6  1  0
 12  7  2  0
 13  8  2  0
 14  5  1  0
 15 20  1  0
 16  9  1  0
 17 10  1  0
 18  2  1  0
 19  1  1  0
 20 18  1  0
 21 19  1  0
  9 11  2  0
 14 10  2  0
M  END

> <chembl_id>
CHEMBL7203

> <chembl_pref_name>
None

$$$$

     RDKit          2D

 29 30  0  0  0  0  0  0  0  0999 V2000
   -5.0229   -5.0772    0.0000 C   0  0  0  0  0  0  0  0  0  0  0  0
   -5.0229   -5.9039    0.0000 C   0  0  0  0  0  0  0  0  0  0  0  0
   -4.3094   -6.3131    0.0000 C   0  0  0  0  0  0  0  0  0  0  0  0
   -3.5959   -5.9039    0.0000 C   0  0  0  0  0  0  0  0  0  0  0  0
   -3.5959   -5.0772    0.0000 C   0  0  0  0  0  0  0  0  0  0  0  0
   -4.3094   -4.6596    0.0000 C   0  0  0  0  0  0  0  0  0  0  0  0
   -2.8852   -4.6638    0.0000 C   0  0  0  0  0  0  0  0  0  0  0  0
   -2.1712   -5.0730    0.0000 C   0  0  0  0  0  0  0  0  0  0  0  0
   -1.4572   -4.6596    0.0000 C   0  0  0  0  0  0  0  0  0  0  0  0
   -0.7432   -5.0688    0.0000 C   0  0  0  0  0  0  0  0  0  0  0  0
   -0.0293   -4.6554    0.0000 C   0  0  0  0  0  0  0  0  0  0  0  0
    0.6847   -5.0647    0.0000 C   0  0  0  0  0  0  0  0  0  0  0  0
    1.3987   -4.6513    0.0000 C   0  0  0  0  0  0  0  0  0  0  0  0
    2.1127   -5.0605    0.0000 C   0  0  0  0  0  0  0  0  0  0  0  0
    2.8266   -4.6471    0.0000 C   0  0  0  0  0  0  0  0  0  0  0  0
    3.5406   -5.0563    0.0000 N   0  0  0  0  0  0  0  0  0  0  0  0
    1.3969   -3.8246    0.0000 C   0  0  0  0  0  0  0  0  0  0  0  0
   -1.4590   -3.8329    0.0000 C   0  0  0  0  0  0  0  0  0  0  0  0
   -4.7306   -3.9415    0.0000 C   0  0  0  0  0  0  0  0  0  0  0  0
   -3.9039   -3.9415    0.0000 C   0  0  0  0  0  0  0  0  0  0  0  0
    2.8248   -3.8204    0.0000 O   0  0  0  0  0  0  0  0  0  0  0  0
    4.2553   -4.6407    0.0000 C   0  0  0  0  0  0  0  0  0  0  0  0
    4.9702   -5.0543    0.0000 C   0  0  0  0  0  0  0  0  0  0  0  0
    5.6843   -4.6394    0.0000 C   0  0  0  0  0  0  0  0  0  0  0  0
    5.6821   -3.8118    0.0000 C   0  0  0  0  0  0  0  0  0  0  0  0
    4.9598   -3.4008    0.0000 C   0  0  0  0  0  0  0  0  0  0  0  0
    4.2486   -3.8182    0.0000 C   0  0  0  0  0  0  0  0  0  0  0  0
    6.3961   -3.3951    0.0000 O   0  0  0  0  0  0  0  0  0  0  0  0
   -2.8806   -6.3183    0.0000 C   0  0  0  0  0  0  0  0  0  0  0  0
  5  7  1  0
 14 15  1  0
  1  2  1  0
 15 16  1  0
  7  8  2  0
 13 17  1  0
  1  6  1  0
  9 18  1  0
  8  9  1  0
  6 19  1  0
  2  3  1  0
  6 20  1  0
  9 10  2  0
 15 21  2  0
  3  4  1  0
 16 22  1  0
 10 11  1  0
 22 23  2  0
  4  5  2  0
 23 24  1  0
 11 12  2  0
 24 25  2  0
  5  6  1  0
 25 26  1  0
 12 13  1  0
 26 27  2  0
 27 22  1  0
 25 28  1  0
 13 14  2  0
  4 29  1  0
M  END

> <chembl_id>
CHEMBL7301

> <chembl_pref_name>
FENRETINIDE

$$$$

     RDKit          2D

 41 45  0  0  1  0  0  0  0  0999 V2000
    3.7167   -5.2667    0.0000 C   0  0  0  0  0  0  0  0  0  0  0  0
    2.9125   -5.5292    0.0000 C   0  0  0  0  0  0  0  0  0  0  0  0
    3.5375   -6.0917    0.0000 C   0  0  0  0  0  0  0  0  0  0  0  0
    2.4625   -4.1417    0.0000 C   0  0  0  0  0  0  0  0  0  0  0  0
    1.2542   -3.5042    0.0000 C   0  0  0  0  0  0  0  0  0  0  0  0
    2.0667   -3.5542    0.0000 C   0  0  0  0  0  0  0  0  0  0  0  0
    2.2792   -4.9625    0.0000 C   0  0  0  0  0  0  0  0  0  0  0  0
    2.3667   -2.7792    0.0000 C   0  0  0  0  0  0  0  0  0  0  0  0
    1.0500   -2.7167    0.0000 C   0  0  0  0  0  0  0  0  0  0  0  0
    1.6667   -5.3417    0.0000 C   0  0  0  0  0  0  0  0  0  0  0  0
    1.7417   -2.2667    0.0000 C   0  0  0  0  0  0  0  0  0  0  0  0
    3.9000   -4.4417    0.0000 C   0  0  0  0  0  0  0  0  0  0  0  0
    0.9042   -5.0250    0.0000 C   0  0  0  0  0  0  0  0  0  0  0  0
    3.2667   -3.8875    0.0000 C   0  0  0  0  0  0  0  0  0  0  0  0
    0.7167   -4.1667    0.0000 C   0  0  0  0  0  0  0  0  0  0  0  0
   11.0292   -5.7292    0.0000 C   0  0  0  0  0  0  0  0  0  0  0  0
   11.7792   -5.2667    0.0000 C   0  0  0  0  0  0  0  0  0  0  0  0
    4.4750   -5.6542    0.0000 O   0  0  0  0  0  0  0  0  0  0  0  0
   11.0292   -4.8875    0.0000 C   0  0  0  0  0  0  0  0  0  0  0  0
    5.1792   -5.1917    0.0000 C   0  0  0  0  0  0  0  0  0  0  0  0
    0.2542   -2.4125    0.0000 O   0  0  0  0  0  0  0  0  0  0  0  0
    2.6792   -3.3167    0.0000 O   0  0  0  0  0  0  0  0  0  0  0  0
    0.4375   -3.3167    0.0000 O   0  0  0  0  0  0  0  0  0  0  0  0
    5.1292   -4.3500    0.0000 O   0  0  0  0  0  0  0  0  0  0  0  0
    3.3417   -6.9167    0.0000 C   0  0  0  0  0  0  0  0  0  0  0  0
    4.2792   -6.4875    0.0000 C   0  0  0  0  0  0  0  0  0  0  0  0
    0.2542   -5.5625    0.0000 C   0  0  0  0  0  0  0  0  0  0  0  0
    1.5000   -5.2542    0.0000 C   0  0  0  0  0  0  0  0  0  0  0  0
    1.7792   -1.4250    0.0000 C   0  0  0  0  0  0  0  0  0  0  0  0
    3.4500   -3.0542    0.0000 C   0  0  0  0  0  0  0  0  0  0  0  0
   10.3167   -5.3500    0.0000 C   0  0  0  0  0  0  0  0  0  0  0  0
   12.5167   -4.8417    0.0000 C   0  0  0  0  0  0  0  0  0  0  0  0
    0.3917   -6.4000    0.0000 O   0  0  0  0  0  0  0  0  0  0  0  0
    5.9375   -5.5792    0.0000 C   0  0  0  0  0  0  0  0  0  0  0  0
    9.5667   -4.9625    0.0000 C   0  0  0  0  0  0  0  0  0  0  0  0
    6.6417   -5.1167    0.0000 C   0  0  0  0  0  0  0  0  0  0  0  0
    8.8625   -5.4250    0.0000 C   0  0  0  0  0  0  0  0  0  0  0  0
    7.4000   -5.5042    0.0000 C   0  0  0  0  0  0  0  0  0  0  0  0
    8.1042   -5.0417    0.0000 C   0  0  0  0  0  0  0  0  0  0  0  0
    2.0625   -5.7792    0.0000 H   0  0  0  0  0  0  0  0  0  0  0  0
    2.6917   -6.3375    0.0000 H   0  0  0  0  0  0  0  0  0  0  0  0
  2  1  1  0
  3  1  1  0
  4 14  1  0
  5  6  1  0
  6  4  1  0
  7  2  1  0
  8  6  1  0
  9  5  1  0
 10  7  1  0
 11  8  2  0
 12  1  1  0
 13 10  2  0
 14 12  1  0
 15 13  1  0
 19 16  1  0
 17 19  1  0
  1 18  1  6
 19 31  1  6
 20 18  1  0
 21  9  2  0
  4 22  1  6
  5 23  1  1
 24 20  2  0
  3 25  1  0
  3 26  1  0
 27 13  1  0
 28 10  1  0
 29 11  1  0
 14 30  1  6
 31 35  1  0
 17 32  1  1
 33 27  1  0
 34 20  1  0
 35 37  1  0
 36 34  1  0
 37 39  1  0
 38 36  1  0
 39 38  1  0
  7 40  1  1
  2 41  1  6
  3  2  1  0
  7  4  1  0
 15  5  1  0
  9 11  1  0
 17 16  1  0
M  END

> <chembl_id>
CHEMBL6834

> <chembl_pref_name>
None

$$$$

     RDKit          2D

 27 29  0  0  0  0  0  0  0  0999 V2000
    4.5292   -3.4000    0.0000 C   0  0  0  0  0  0  0  0  0  0  0  0
    4.7875   -2.8542    0.0000 N   0  0  0  0  0  0  0  0  0  0  0  0
   -3.0208   -3.7917    0.0000 N   0  0  0  0  0  0  0  0  0  0  0  0
    4.9750   -3.8125    0.0000 O   0  0  0  0  0  0  0  0  0  0  0  0
   -2.4958   -4.0917    0.0000 O   0  0  0  0  0  0  0  0  0  0  0  0
   -1.9833   -3.1875    0.0000 C   0  0  0  0  0  0  0  0  0  0  0  0
   -1.9833   -3.7875    0.0000 C   0  0  0  0  0  0  0  0  0  0  0  0
   -3.0208   -3.1917    0.0000 C   0  0  0  0  0  0  0  0  0  0  0  0
    3.9417   -3.5167    0.0000 C   0  0  0  0  0  0  0  0  0  0  0  0
    5.3792   -2.9292    0.0000 C   0  0  0  0  0  0  0  0  0  0  0  0
    3.7542   -4.0792    0.0000 C   0  0  0  0  0  0  0  0  0  0  0  0
    3.5542   -3.0625    0.0000 C   0  0  0  0  0  0  0  0  0  0  0  0
    5.4917   -3.5167    0.0000 C   0  0  0  0  0  0  0  0  0  0  0  0
    2.7667   -3.7417    0.0000 C   0  0  0  0  0  0  0  0  0  0  0  0
    2.9667   -3.1750    0.0000 C   0  0  0  0  0  0  0  0  0  0  0  0
    3.1667   -4.1917    0.0000 C   0  0  0  0  0  0  0  0  0  0  0  0
    2.1667   -3.7417    0.0000 O   0  0  0  0  0  0  0  0  0  0  0  0
   -1.4583   -4.0792    0.0000 C   0  0  0  0  0  0  0  0  0  0  0  0
   -3.4500   -2.7667    0.0000 C   0  0  0  0  0  0  0  0  0  0  0  0
    5.7917   -2.4917    0.0000 C   0  0  0  0  0  0  0  0  0  0  0  0
    1.6542   -4.0500    0.0000 C   0  0  0  0  0  0  0  0  0  0  0  0
   -0.9458   -3.7750    0.0000 C   0  0  0  0  0  0  0  0  0  0  0  0
    1.1375   -3.7542    0.0000 C   0  0  0  0  0  0  0  0  0  0  0  0
    0.6167   -4.0625    0.0000 C   0  0  0  0  0  0  0  0  0  0  0  0
   -0.4208   -4.0667    0.0000 C   0  0  0  0  0  0  0  0  0  0  0  0
    0.0917   -3.7667    0.0000 C   0  0  0  0  0  0  0  0  0  0  0  0
    6.3792   -2.6292    0.0000 C   0  0  0  0  0  0  0  0  0  0  0  0
  2  1  2  0
  3  5  1  0
  4  1  1  0
  5  7  1  0
  6  7  2  0
  7 18  1  0
  8  6  1  0
  9  1  1  0
 10  2  1  0
 11  9  2  0
 12  9  1  0
 13  4  1  0
 14 15  1  0
 15 12  2  0
 16 11  1  0
 17 14  1  0
 18 22  1  0
 19  8  1  0
 20 10  1  0
 21 17  1  0
 22 25  1  0
 23 21  1  0
 24 23  1  0
 25 26  1  0
 26 24  1  0
 27 20  1  0
 13 10  1  0
 16 14  2  0
  8  3  2  0
M  END

> <chembl_id>
CHEMBL269703

> <chembl_pref_name>
None

$$$$

     RDKit          2D

 53 59  0  0  1  0  0  0  0  0999 V2000
    4.7500   -5.2917    0.0000 N   0  0  0  0  0  0  0  0  0  0  0  0
    3.3292   -5.2917    0.0000 C   0  0  0  0  0  0  0  0  0  0  0  0
    3.9542   -8.4417    0.0000 C   0  0  0  0  0  0  0  0  0  0  0  0
    1.0875   -7.7542    0.0000 C   0  0  0  0  0  0  0  0  0  0  0  0
    4.0375   -4.8792    0.0000 C   0  0  0  0  0  0  0  0  0  0  0  0
    4.9917   -6.0292    0.0000 C   0  0  0  0  0  0  0  0  0  0  0  0
    5.4667   -4.8875    0.0000 C   0  0  0  0  0  0  0  0  0  0  0  0
    3.3375   -6.1042    0.0000 C   0  0  0  0  0  0  0  0  0  0  0  0
    3.7792   -9.2292    0.0000 C   0  0  0  0  0  0  0  0  0  0  0  0
    0.5667   -8.3750    0.0000 C   0  0  0  0  0  0  0  0  0  0  0  0
    4.6542   -8.7042    0.0000 O   0  0  0  0  0  0  0  0  0  0  0  0
    1.5792   -8.3167    0.0000 O   0  0  0  0  0  0  0  0  0  0  0  0
    4.7042   -7.7792    0.0000 C   0  0  0  0  0  0  0  0  0  0  0  0
    1.1292   -7.0417    0.0000 C   0  0  0  0  0  0  0  0  0  0  0  0
    2.6250   -6.5167    0.0000 C   0  0  0  0  0  0  0  0  0  0  0  0
    1.0417   -8.8625    0.0000 C   0  0  0  0  0  0  0  0  0  0  0  0
    4.6792   -9.4000    0.0000 C   0  0  0  0  0  0  0  0  0  0  0  0
    3.5417   -7.7292    0.0000 C   0  0  0  0  0  0  0  0  0  0  0  0
    1.9125   -7.7542    0.0000 C   0  0  0  0  0  0  0  0  0  0  0  0
    2.6167   -4.8792    0.0000 C   0  0  0  0  0  0  0  0  0  0  0  0
    1.9125   -6.1125    0.0000 C   0  0  0  0  0  0  0  0  0  0  0  0
    1.9125   -5.2917    0.0000 O   0  0  0  0  0  0  0  0  0  0  0  0
    4.0417   -4.0542    0.0000 C   0  0  0  0  0  0  0  0  0  0  0  0
    5.4667   -4.0625    0.0000 C   0  0  0  0  0  0  0  0  0  0  0  0
    3.5875   -6.7125    0.0000 O   0  0  0  0  0  0  0  0  0  0  0  0
    2.6250   -7.3417    0.0000 O   0  0  0  0  0  0  0  0  0  0  0  0
    4.7542   -3.6417    0.0000 C   0  0  0  0  0  0  0  0  0  0  0  0
    0.3042   -7.8875    0.0000 C   0  0  0  0  0  0  0  0  0  0  0  0
    3.1792   -8.7125    0.0000 C   0  0  0  0  0  0  0  0  0  0  0  0
    5.5542   -6.3042    0.0000 O   0  0  0  0  0  0  0  0  0  0  0  0
    3.1417   -9.6042    0.0000 C   0  0  0  0  0  0  0  0  0  0  0  0
   -0.1833   -8.4042    0.0000 C   0  0  0  0  0  0  0  0  0  0  0  0
    3.3292   -3.6417    0.0000 C   0  0  0  0  0  0  0  0  0  0  0  0
    4.5250   -6.2417    0.0000 O   0  0  0  0  0  0  0  0  0  0  0  0
    6.1750   -5.3042    0.0000 O   0  0  0  0  0  0  0  0  0  0  0  0
    2.6167   -4.0542    0.0000 C   0  0  0  0  0  0  0  0  0  0  0  0
    1.0417   -9.6875    0.0000 O   0  0  0  0  0  0  0  0  0  0  0  0
    5.2250  -10.0250    0.0000 O   0  0  0  0  0  0  0  0  0  0  0  0
    4.2542   -7.3125    0.0000 O   0  0  0  0  0  0  0  0  0  0  0  0
    2.2125   -8.3667    0.0000 O   0  0  0  0  0  0  0  0  0  0  0  0
    6.0875   -6.8667    0.0000 C   0  0  0  0  0  0  0  0  0  0  0  0
    0.7167   -6.3292    0.0000 C   0  0  0  0  0  0  0  0  0  0  0  0
    0.3292   -6.8292    0.0000 C   0  0  0  0  0  0  0  0  0  0  0  0
    5.2042   -7.1250    0.0000 C   0  0  0  0  0  0  0  0  0  0  0  0
    5.4167   -8.1917    0.0000 C   0  0  0  0  0  0  0  0  0  0  0  0
    3.9917  -10.0292    0.0000 C   0  0  0  0  0  0  0  0  0  0  0  0
    0.2792   -9.1500    0.0000 C   0  0  0  0  0  0  0  0  0  0  0  0
    4.7542   -2.8167    0.0000 C   0  0  0  0  0  0  0  0  0  0  0  0
    1.1125   -5.8917    0.0000 C   0  0  0  0  0  0  0  0  0  0  0  0
    1.4917   -6.8250    0.0000 C   0  0  0  0  0  0  0  0  0  0  0  0
    6.4625   -6.3667    0.0000 C   0  0  0  0  0  0  0  0  0  0  0  0
    6.7417   -7.0250    0.0000 C   0  0  0  0  0  0  0  0  0  0  0  0
    6.0542   -7.3375    0.0000 C   0  0  0  0  0  0  0  0  0  0  0  0
  2  5  2  0
  3 18  1  0
  4 19  1  0
  5  1  1  0
  6  1  1  0
  7  1  1  0
  8  2  1  0
  9 13  1  0
 10 14  1  0
 11  3  1  0
 12  4  1  0
 13  3  1  0
 14  4  1  0
 15  8  1  0
 16 12  1  0
 17 11  1  0
 18 25  1  0
 19 26  1  0
 20  2  1  0
 21 22  1  0
 22 20  1  0
 23  5  1  0
 24  7  1  0
  8 25  1  1
 15 26  1  1
 27 24  2  0
 28  4  1  0
 29  3  1  0
 30  6  1  0
 31 29  1  0
 32 28  1  0
 33 23  2  0
 34  6  2  0
 35  7  2  0
 36 33  1  0
 37 16  2  0
 38 17  2  0
 39 18  2  0
 40 19  2  0
 41 30  1  0
 42 14  1  0
 43 14  1  0
 44 13  1  0
 45 13  1  0
 46  9  1  0
 47 10  1  0
 48 27  1  0
 49 21  1  0
 50 21  1  0
 51 41  1  0
 52 41  1  0
 53 41  1  0
 23 27  1  0
 36 20  2  0
 15 21  1  0
 31  9  1  0
  9 17  1  0
 32 10  1  0
 10 16  1  0
M  END

> <chembl_id>
CHEMBL6758

> <chembl_pref_name>
None

$$$$

     RDKit          2D

 47 53  0  0  1  0  0  0  0  0999 V2000
    6.9167   -8.4042    0.0000 C   0  0  0  0  0  0  0  0  0  0  0  0
    4.0542   -7.7167    0.0000 C   0  0  0  0  0  0  0  0  0  0  0  0
    6.2917   -5.2542    0.0000 C   0  0  0  0  0  0  0  0  0  0  0  0
    7.0042   -4.8500    0.0000 C   0  0  0  0  0  0  0  0  0  0  0  0
    7.7167   -5.2625    0.0000 N   0  0  0  0  0  0  0  0  0  0  0  0
    6.3042   -6.0750    0.0000 C   0  0  0  0  0  0  0  0  0  0  0  0
    6.7500   -9.2000    0.0000 C   0  0  0  0  0  0  0  0  0  0  0  0
    3.5292   -8.3417    0.0000 C   0  0  0  0  0  0  0  0  0  0  0  0
    7.6167   -8.6750    0.0000 O   0  0  0  0  0  0  0  0  0  0  0  0
    4.5417   -8.2792    0.0000 O   0  0  0  0  0  0  0  0  0  0  0  0
    7.6750   -7.7417    0.0000 C   0  0  0  0  0  0  0  0  0  0  0  0
    3.7667   -6.9875    0.0000 C   0  0  0  0  0  0  0  0  0  0  0  0
    5.5917   -6.4875    0.0000 C   0  0  0  0  0  0  0  0  0  0  0  0
    8.4292   -4.8542    0.0000 C   0  0  0  0  0  0  0  0  0  0  0  0
    7.6500   -9.3667    0.0000 C   0  0  0  0  0  0  0  0  0  0  0  0
    4.0042   -8.8292    0.0000 C   0  0  0  0  0  0  0  0  0  0  0  0
    7.7167   -3.6125    0.0000 C   0  0  0  0  0  0  0  0  0  0  0  0
    7.0042   -4.0250    0.0000 C   0  0  0  0  0  0  0  0  0  0  0  0
    6.5125   -7.6917    0.0000 C   0  0  0  0  0  0  0  0  0  0  0  0
    4.8792   -7.7250    0.0000 C   0  0  0  0  0  0  0  0  0  0  0  0
    8.4292   -4.0292    0.0000 C   0  0  0  0  0  0  0  0  0  0  0  0
    5.5875   -4.8500    0.0000 C   0  0  0  0  0  0  0  0  0  0  0  0
    4.8792   -6.0792    0.0000 C   0  0  0  0  0  0  0  0  0  0  0  0
    4.8792   -5.2542    0.0000 O   0  0  0  0  0  0  0  0  0  0  0  0
    6.5542   -6.6792    0.0000 O   0  0  0  0  0  0  0  0  0  0  0  0
    5.5917   -7.3125    0.0000 O   0  0  0  0  0  0  0  0  0  0  0  0
    6.1500   -8.6792    0.0000 C   0  0  0  0  0  0  0  0  0  0  0  0
    3.2667   -7.8542    0.0000 C   0  0  0  0  0  0  0  0  0  0  0  0
    6.1042   -9.5750    0.0000 C   0  0  0  0  0  0  0  0  0  0  0  0
    2.7875   -8.3667    0.0000 C   0  0  0  0  0  0  0  0  0  0  0  0
    6.2917   -3.6042    0.0000 C   0  0  0  0  0  0  0  0  0  0  0  0
    5.5875   -4.0250    0.0000 C   0  0  0  0  0  0  0  0  0  0  0  0
    9.1417   -5.2667    0.0000 O   0  0  0  0  0  0  0  0  0  0  0  0
    4.0042   -9.6542    0.0000 O   0  0  0  0  0  0  0  0  0  0  0  0
    8.1917   -9.9917    0.0000 O   0  0  0  0  0  0  0  0  0  0  0  0
    7.2250   -7.2792    0.0000 O   0  0  0  0  0  0  0  0  0  0  0  0
    5.1792   -8.3375    0.0000 O   0  0  0  0  0  0  0  0  0  0  0  0
    3.6792   -6.2917    0.0000 C   0  0  0  0  0  0  0  0  0  0  0  0
    3.3000   -6.7917    0.0000 C   0  0  0  0  0  0  0  0  0  0  0  0
    7.7250   -2.7875    0.0000 C   0  0  0  0  0  0  0  0  0  0  0  0
    8.1750   -7.0917    0.0000 C   0  0  0  0  0  0  0  0  0  0  0  0
    8.3875   -8.1542    0.0000 C   0  0  0  0  0  0  0  0  0  0  0  0
    6.9625   -9.9917    0.0000 C   0  0  0  0  0  0  0  0  0  0  0  0
    3.2500   -9.1167    0.0000 C   0  0  0  0  0  0  0  0  0  0  0  0
    9.1500   -3.6167    0.0000 C   0  0  0  0  0  0  0  0  0  0  0  0
    4.4625   -6.7917    0.0000 C   0  0  0  0  0  0  0  0  0  0  0  0
    4.0792   -5.8625    0.0000 C   0  0  0  0  0  0  0  0  0  0  0  0
  2 20  1  0
  3  6  1  0
  4  3  1  0
  5  4  2  0
  6 25  1  1
  7 11  1  0
  8 12  1  0
  9  1  1  0
 10  2  1  0
 11  1  1  0
 12  2  1  0
 13  6  1  0
 14  5  1  0
 15  9  1  0
 16 10  1  0
 17 18  2  0
 18  4  1  0
 19  1  1  0
 20 26  1  0
 21 17  1  0
 22  3  2  0
 23 13  1  0
 24 23  1  0
 25 19  1  0
 13 26  1  1
 27  1  1  0
 28  2  1  0
 29 27  1  0
 30 28  1  0
 31 32  2  0
 32 22  1  0
 33 14  1  0
 34 16  2  0
 35 15  2  0
 36 19  2  0
 37 20  2  0
 38 12  1  0
 39 12  1  0
 40 17  1  0
 41 11  1  0
 42 11  1  0
 43  7  1  0
 44  8  1  0
 45 21  1  0
 46 23  1  0
 47 23  1  0
 29  7  1  0
  7 15  1  0
 22 24  1  0
 18 31  1  0
 14 21  2  0
 30  8  1  0
  8 16  1  0
M  END

> <chembl_id>
CHEMBL268653

> <chembl_pref_name>
None

$$$$

     RDKit          2D

 45 51  0  0  0  0  0  0  0  0999 V2000
   13.2485  -15.8498    0.0000 C   0  0  0  0  0  0  0  0  0  0  0  0
   12.7365  -15.3870    0.0000 C   0  0  0  0  0  0  0  0  0  0  0  0
   13.1001  -15.1041    0.0000 O   0  0  0  0  0  0  0  0  0  0  0  0
   11.6938  -15.8647    0.0000 C   0  0  0  0  0  0  0  0  0  0  0  0
   12.3762  -14.7792    0.0000 C   0  0  0  0  0  0  0  0  0  0  0  0
   11.5901  -15.1258    0.0000 C   0  0  0  0  0  0  0  0  0  0  0  0
   12.6348  -13.7777    0.0000 C   0  0  0  0  0  0  0  0  0  0  0  0
   13.7593  -16.4977    0.0000 O   0  0  0  0  0  0  0  0  0  0  0  0
   12.1943  -13.1002    0.0000 C   0  0  0  0  0  0  0  0  0  0  0  0
   13.1235  -13.4835    0.0000 C   0  0  0  0  0  0  0  0  0  0  0  0
   11.6568  -14.3627    0.0000 C   0  0  0  0  0  0  0  0  0  0  0  0
   11.6579  -13.5377    0.0000 O   0  0  0  0  0  0  0  0  0  0  0  0
   10.9418  -14.7742    0.0000 O   0  0  0  0  0  0  0  0  0  0  0  0
    8.5123  -16.5615    0.0000 C   0  0  0  0  0  0  0  0  0  0  0  0
    8.9364  -16.0170    0.0000 C   0  0  0  0  0  0  0  0  0  0  0  0
    9.2452  -16.3589    0.0000 O   0  0  0  0  0  0  0  0  0  0  0  0
    8.3836  -15.0120    0.0000 C   0  0  0  0  0  0  0  0  0  0  0  0
    9.5161  -15.6131    0.0000 C   0  0  0  0  0  0  0  0  0  0  0  0
    9.1130  -14.8544    0.0000 C   0  0  0  0  0  0  0  0  0  0  0  0
   10.5339  -15.7976    0.0000 C   0  0  0  0  0  0  0  0  0  0  0  0
    7.9036  -17.1183    0.0000 O   0  0  0  0  0  0  0  0  0  0  0  0
   11.1774  -15.3087    0.0000 C   0  0  0  0  0  0  0  0  0  0  0  0
   10.8631  -16.2635    0.0000 C   0  0  0  0  0  0  0  0  0  0  0  0
   10.2194  -11.0750    0.0000 C   0  0  0  0  0  0  0  0  0  0  0  0
   10.9313  -10.6622    0.0000 C   0  0  0  0  0  0  0  0  0  0  0  0
   11.6466  -11.0713    0.0000 C   0  0  0  0  0  0  0  0  0  0  0  0
   11.6455  -11.8998    0.0000 C   0  0  0  0  0  0  0  0  0  0  0  0
   12.3584  -12.3128    0.0000 O   0  0  0  0  0  0  0  0  0  0  0  0
   13.0771  -11.9018    0.0000 C   0  0  0  0  0  0  0  0  0  0  0  0
   13.0783  -11.0733    0.0000 C   0  0  0  0  0  0  0  0  0  0  0  0
   12.3608  -10.6558    0.0000 C   0  0  0  0  0  0  0  0  0  0  0  0
   10.9331  -12.3152    0.0000 C   0  0  0  0  0  0  0  0  0  0  0  0
   10.2190  -11.9060    0.0000 C   0  0  0  0  0  0  0  0  0  0  0  0
    9.5116  -12.3175    0.0000 O   0  0  0  0  0  0  0  0  0  0  0  0
    9.5120  -13.1399    0.0000 C   0  0  0  0  0  0  0  0  0  0  0  0
   10.2260  -13.5490    0.0000 C   0  0  0  0  0  0  0  0  0  0  0  0
   10.9396  -13.1358    0.0000 C   0  0  0  0  0  0  0  0  0  0  0  0
   13.7904  -12.3163    0.0000 O   0  0  0  0  0  0  0  0  0  0  0  0
   10.2279  -14.3740    0.0000 O   0  0  0  0  0  0  0  0  0  0  0  0
    9.5143  -14.7881    0.0000 C   0  0  0  0  0  0  0  0  0  0  0  0
    8.7989  -14.3772    0.0000 O   0  0  0  0  0  0  0  0  0  0  0  0
    8.6833  -13.1333    0.0000 C   0  0  0  0  0  0  0  0  0  0  0  0
    9.0917  -13.8500    0.0000 C   0  0  0  0  0  0  0  0  0  0  0  0
    8.2167  -15.6042    0.0000 C   0  0  0  0  0  0  0  0  0  0  0  0
   12.9458  -16.1792    0.0000 C   0  0  0  0  0  0  0  0  0  0  0  0
  7 10  1  0
 20 22  1  0
  2  4  1  0
 20 23  1  0
  5 11  1  0
 24 33  2  0
 32 27  2  0
  3  5  1  0
 26 25  2  0
 25 24  1  0
 26 27  1  0
 11 12  1  0
  4  6  1  0
 11 13  2  0
  5  6  1  0
  5  7  1  0
 26 31  1  0
 27 28  1  0
 28 29  1  0
 29 30  1  0
 30 31  2  0
 32 33  1  0
  1  8  2  0
  2  7  1  0
  1  2  1  0
  7  9  1  0
 14 15  1  0
 14 16  1  0
 32 37  1  0
 33 34  1  0
 34 35  1  0
 35 36  1  0
 36 37  1  0
 15 17  1  0
 29 38  2  0
 16 18  1  0
 36 39  1  1
 37 12  1  1
 17 19  1  0
 39 40  1  0
 18 19  1  0
 40 41  2  0
 18 20  1  0
 35 42  1  0
  1  3  1  0
 35 43  1  0
 40 18  1  0
 14 21  2  0
 15 44  1  0
 15 20  1  0
  2 45  1  0
M  END

> <chembl_id>
CHEMBL269559

> <chembl_pref_name>
None

$$$$

     RDKit          2D

 20 21  0  0  0  0  0  0  0  0999 V2000
    4.9372   -1.3609    0.0000 C   0  0  0  0  0  0  0  0  0  0  0  0
    3.8999   -0.7576    0.0000 C   0  0  0  0  0  0  0  0  0  0  0  0
    2.5973   -1.5031    0.0000 C   0  0  0  0  0  0  0  0  0  0  0  0
    1.2990   -0.7500    0.0000 C   0  0  0  0  0  0  0  0  0  0  0  0
    1.2990    0.7500    0.0000 C   0  0  0  0  0  0  0  0  0  0  0  0
    0.0000    1.5000    0.0000 C   0  0  0  0  0  0  0  0  0  0  0  0
   -1.2990    0.7500    0.0000 C   0  0  0  0  0  0  0  0  0  0  0  0
   -2.3383    1.3500    0.0000 O   0  0  0  0  0  0  0  0  0  0  0  0
   -1.2990   -0.7500    0.0000 C   0  0  0  0  0  0  0  0  0  0  0  0
    0.0000   -1.5000    0.0000 C   0  0  0  0  0  0  0  0  0  0  0  0
    2.5951   -3.0039    0.0000 C   0  0  0  0  0  0  0  0  0  0  0  0
    3.8933   -3.7570    0.0000 C   0  0  0  0  0  0  0  0  0  0  0  0
    3.8934   -5.2570    0.0000 C   0  0  0  0  0  0  0  0  0  0  0  0
    5.1924   -6.0070    0.0000 C   0  0  0  0  0  0  0  0  0  0  0  0
    6.4915   -5.2571    0.0000 C   0  0  0  0  0  0  0  0  0  0  0  0
    7.5307   -5.8571    0.0000 O   0  0  0  0  0  0  0  0  0  0  0  0
    6.4915   -3.7571    0.0000 C   0  0  0  0  0  0  0  0  0  0  0  0
    5.1925   -3.0070    0.0000 C   0  0  0  0  0  0  0  0  0  0  0  0
    1.2925   -3.7494    0.0000 C   0  0  0  0  0  0  0  0  0  0  0  0
    0.2552   -3.1461    0.0000 C   0  0  0  0  0  0  0  0  0  0  0  0
  2  1  1  0
  3  2  1  0
  4  3  1  0
 11  3  2  0
  5  4  1  0
 10  4  2  0
  5  6  2  0
  6  7  1  0
  7  8  1  0
  7  9  2  0
  9 10  1  0
 12 11  1  0
 11 19  1  0
 13 12  1  0
 18 12  2  0
 14 13  2  0
 15 14  1  0
 15 16  1  0
 17 15  2  0
 18 17  1  0
 19 20  1  0
M  END

> <chembl_id>
CHEMBL411

> <chembl_pref_name>
DIETHYLSTILBESTROL

$$$$

     RDKit          2D

 19 21  0  0  0  0  0  0  0  0999 V2000
    4.3875   -1.3542    0.0000 C   0  0  0  0  0  0  0  0  0  0  0  0
    3.6167   -1.0375    0.0000 N   0  0  0  0  0  0  0  0  0  0  0  0
    2.7542   -2.2500    0.0000 C   0  0  0  0  0  0  0  0  0  0  0  0
    4.9167   -0.7292    0.0000 C   0  0  0  0  0  0  0  0  0  0  0  0
    2.9000   -1.4292    0.0000 C   0  0  0  0  0  0  0  0  0  0  0  0
    4.4917   -0.0292    0.0000 N   0  0  0  0  0  0  0  0  0  0  0  0
    3.3000   -2.8625    0.0000 C   0  0  0  0  0  0  0  0  0  0  0  0
    4.1125   -2.8125    0.0000 N   0  0  0  0  0  0  0  0  0  0  0  0
    3.6875   -0.2167    0.0000 C   0  0  0  0  0  0  0  0  0  0  0  0
    4.5917   -2.1417    0.0000 C   0  0  0  0  0  0  0  0  0  0  0  0
    5.7417   -0.7792    0.0000 C   0  0  0  0  0  0  0  0  0  0  0  0
    1.9417   -2.3625    0.0000 S   0  0  0  0  0  0  0  0  0  0  0  0
    2.1667   -1.0500    0.0000 C   0  0  0  0  0  0  0  0  0  0  0  0
    1.5792   -1.6167    0.0000 C   0  0  0  0  0  0  0  0  0  0  0  0
    2.9875   -3.6292    0.0000 O   0  0  0  0  0  0  0  0  0  0  0  0
    6.2042   -0.0917    0.0000 O   0  0  0  0  0  0  0  0  0  0  0  0
    6.1125   -1.5250    0.0000 O   0  0  0  0  0  0  0  0  0  0  0  0
    4.5042   -3.5417    0.0000 C   0  0  0  0  0  0  0  0  0  0  0  0
    6.9292   -1.5750    0.0000 C   0  0  0  0  0  0  0  0  0  0  0  0
  2  1  1  0
  3  5  2  0
  4  1  2  0
  5  2  1  0
  6  4  1  0
  7  8  1  0
  8 10  1  0
  9  2  1  0
 10  1  1  0
 11  4  1  0
 12  3  1  0
 13  5  1  0
 14 13  2  0
 15  7  2  0
 16 11  2  0
 17 11  1  0
 18  8  1  0
 19 17  1  0
  6  9  2  0
  3  7  1  0
 14 12  1  0
M  END

> <chembl_id>
CHEMBL6752

> <chembl_pref_name>
None

$$$$

     RDKit          2D

 26 27  0  0  0  0  0  0  0  0999 V2000
    0.1792   -3.6167    0.0000 N   0  0  0  0  0  0  0  0  0  0  0  0
    0.0542   -4.5167    0.0000 C   0  0  0  0  0  0  0  0  0  0  0  0
   -0.7250   -4.7792    0.0000 C   0  0  0  0  0  0  0  0  0  0  0  0
    0.9667   -3.3542    0.0000 C   0  0  0  0  0  0  0  0  0  0  0  0
    1.6875   -3.7542    0.0000 C   0  0  0  0  0  0  0  0  0  0  0  0
    0.6750   -5.0542    0.0000 O   0  0  0  0  0  0  0  0  0  0  0  0
   -0.8875   -5.5917    0.0000 C   0  0  0  0  0  0  0  0  0  0  0  0
   -1.3458   -4.2417    0.0000 O   0  0  0  0  0  0  0  0  0  0  0  0
    1.7000   -4.5792    0.0000 O   0  0  0  0  0  0  0  0  0  0  0  0
    6.6750   -3.2625    0.0000 N   0  0  0  0  0  0  0  0  0  0  0  0
   -0.4375   -3.0792    0.0000 C   0  0  0  0  0  0  0  0  0  0  0  0
    2.3917   -3.3292    0.0000 O   0  0  0  0  0  0  0  0  0  0  0  0
    5.2500   -3.2875    0.0000 C   0  0  0  0  0  0  0  0  0  0  0  0
    1.1250   -2.5542    0.0000 C   0  0  0  0  0  0  0  0  0  0  0  0
    5.9667   -3.6875    0.0000 C   0  0  0  0  0  0  0  0  0  0  0  0
   -1.6708   -5.8542    0.0000 C   0  0  0  0  0  0  0  0  0  0  0  0
    6.6625   -2.4375    0.0000 C   0  0  0  0  0  0  0  0  0  0  0  0
    3.1167   -3.7292    0.0000 C   0  0  0  0  0  0  0  0  0  0  0  0
    4.5417   -3.7042    0.0000 C   0  0  0  0  0  0  0  0  0  0  0  0
    5.2292   -2.4625    0.0000 C   0  0  0  0  0  0  0  0  0  0  0  0
   -0.2750   -2.2667    0.0000 C   0  0  0  0  0  0  0  0  0  0  0  0
    3.8250   -3.3042    0.0000 C   0  0  0  0  0  0  0  0  0  0  0  0
   -1.8250   -6.6667    0.0000 C   0  0  0  0  0  0  0  0  0  0  0  0
   -2.2875   -5.3167    0.0000 C   0  0  0  0  0  0  0  0  0  0  0  0
    5.9375   -2.0375    0.0000 C   0  0  0  0  0  0  0  0  0  0  0  0
    0.5042   -2.0042    0.0000 C   0  0  0  0  0  0  0  0  0  0  0  0
  2  1  1  0
  3  2  1  0
  4  1  1  0
  5  4  1  0
  6  2  2  0
  7  3  1  0
  8  3  2  0
  9  5  2  0
 10 15  1  0
 11  1  1  0
 12  5  1  0
 13 19  1  0
 14  4  1  0
 15 13  2  0
 16  7  1  0
 17 25  1  0
 18 12  1  0
 19 22  1  0
 20 13  1  0
 21 11  1  0
 22 18  1  0
 23 16  1  0
 24 16  1  0
 25 20  2  0
 26 21  1  0
 14 26  1  0
 10 17  2  0
M  END

> <chembl_id>
CHEMBL268113

> <chembl_pref_name>
None

$$$$

     RDKit          2D

 28 30  0  0  0  0  0  0  0  0999 V2000
    0.1792   -3.6167    0.0000 N   0  0  0  0  0  0  0  0  0  0  0  0
    0.0542   -4.5167    0.0000 C   0  0  0  0  0  0  0  0  0  0  0  0
   -0.7250   -4.7792    0.0000 C   0  0  0  0  0  0  0  0  0  0  0  0
    0.9667   -3.3542    0.0000 C   0  0  0  0  0  0  0  0  0  0  0  0
    1.6875   -3.7542    0.0000 C   0  0  0  0  0  0  0  0  0  0  0  0
    0.6750   -5.0542    0.0000 O   0  0  0  0  0  0  0  0  0  0  0  0
   -1.3458   -4.2417    0.0000 O   0  0  0  0  0  0  0  0  0  0  0  0
   -0.8875   -5.5917    0.0000 C   0  0  0  0  0  0  0  0  0  0  0  0
    1.7000   -4.5792    0.0000 O   0  0  0  0  0  0  0  0  0  0  0  0
    6.6750   -3.2625    0.0000 N   0  0  0  0  0  0  0  0  0  0  0  0
   -0.4375   -3.0792    0.0000 C   0  0  0  0  0  0  0  0  0  0  0  0
    2.3917   -3.3292    0.0000 O   0  0  0  0  0  0  0  0  0  0  0  0
    5.2500   -3.2875    0.0000 C   0  0  0  0  0  0  0  0  0  0  0  0
    1.1250   -2.5542    0.0000 C   0  0  0  0  0  0  0  0  0  0  0  0
    5.9667   -3.6875    0.0000 C   0  0  0  0  0  0  0  0  0  0  0  0
    6.6625   -2.4375    0.0000 C   0  0  0  0  0  0  0  0  0  0  0  0
   -1.6708   -5.8542    0.0000 C   0  0  0  0  0  0  0  0  0  0  0  0
   -0.2625   -6.1292    0.0000 C   0  0  0  0  0  0  0  0  0  0  0  0
    3.1167   -3.7292    0.0000 C   0  0  0  0  0  0  0  0  0  0  0  0
    4.5417   -3.7042    0.0000 C   0  0  0  0  0  0  0  0  0  0  0  0
    5.2292   -2.4625    0.0000 C   0  0  0  0  0  0  0  0  0  0  0  0
   -0.2750   -2.2667    0.0000 C   0  0  0  0  0  0  0  0  0  0  0  0
    3.8250   -3.3042    0.0000 C   0  0  0  0  0  0  0  0  0  0  0  0
    5.9375   -2.0375    0.0000 C   0  0  0  0  0  0  0  0  0  0  0  0
    0.5042   -2.0042    0.0000 C   0  0  0  0  0  0  0  0  0  0  0  0
   -1.8250   -6.6625    0.0000 C   0  0  0  0  0  0  0  0  0  0  0  0
   -0.4208   -6.9375    0.0000 C   0  0  0  0  0  0  0  0  0  0  0  0
   -1.2083   -7.2042    0.0000 C   0  0  0  0  0  0  0  0  0  0  0  0
  2  1  1  0
  3  2  1  0
  4  1  1  0
  5  4  1  0
  6  2  2  0
  7  3  2  0
  8  3  1  0
  9  5  2  0
 10 15  1  0
 11  1  1  0
 12  5  1  0
 13 20  1  0
 14  4  1  0
 15 13  2  0
 16 24  1  0
 17  8  2  0
 18  8  1  0
 19 12  1  0
 20 23  1  0
 21 13  1  0
 22 11  1  0
 23 19  1  0
 24 21  2  0
 25 22  1  0
 26 17  1  0
 27 18  2  0
 28 27  1  0
 14 25  1  0
 26 28  2  0
 10 16  2  0
M  END

> <chembl_id>
CHEMBL6714

> <chembl_pref_name>
None

$$$$

     RDKit          2D

 22 24  0  0  0  0  0  0  0  0999 V2000
    3.5042   -0.5917    0.0000 C   0  0  0  0  0  0  0  0  0  0  0  0
    4.2167   -1.0042    0.0000 C   0  0  0  0  0  0  0  0  0  0  0  0
    4.2167   -1.8292    0.0000 C   0  0  0  0  0  0  0  0  0  0  0  0
    3.5042    0.2333    0.0000 C   0  0  0  0  0  0  0  0  0  0  0  0
    6.3625   -2.2417    0.0000 N   0  0  0  0  0  0  0  0  0  0  0  0
    5.6500   -1.8292    0.0000 C   0  0  0  0  0  0  0  0  0  0  0  0
    3.5042   -2.2417    0.0000 O   0  0  0  0  0  0  0  0  0  0  0  0
    2.7917   -1.8292    0.0000 C   0  0  0  0  0  0  0  0  0  0  0  0
    2.7917   -1.0042    0.0000 C   0  0  0  0  0  0  0  0  0  0  0  0
    5.6500   -1.0042    0.0000 C   0  0  0  0  0  0  0  0  0  0  0  0
    4.9292   -0.5917    0.0000 C   0  0  0  0  0  0  0  0  0  0  0  0
    4.9292   -2.2417    0.0000 C   0  0  0  0  0  0  0  0  0  0  0  0
    7.0792   -1.8292    0.0000 C   0  0  0  0  0  0  0  0  0  0  0  0
    6.3625   -0.5917    0.0000 C   0  0  0  0  0  0  0  0  0  0  0  0
    7.0792   -1.0042    0.0000 C   0  0  0  0  0  0  0  0  0  0  0  0
    2.0667   -2.2500    0.0000 O   0  0  0  0  0  0  0  0  0  0  0  0
    3.5042    1.0583    0.0000 F   0  0  0  0  0  0  0  0  0  0  0  0
    4.3292    0.2333    0.0000 F   0  0  0  0  0  0  0  0  0  0  0  0
    2.6792    0.2333    0.0000 F   0  0  0  0  0  0  0  0  0  0  0  0
    7.9042   -1.8292    0.0000 C   0  0  0  0  0  0  0  0  0  0  0  0
    7.7917   -0.5917    0.0000 C   0  0  0  0  0  0  0  0  0  0  0  0
    8.3167   -2.5417    0.0000 C   0  0  0  0  0  0  0  0  0  0  0  0
  2  1  1  0
  3  2  2  0
  4  1  1  0
  5  6  1  0
  6 10  1  0
  7  8  1  0
  8  9  1  0
  9  1  2  0
 10 11  2  0
 11  2  1  0
 12  3  1  0
 13 15  1  0
 14 10  1  0
 15 14  1  0
 16  8  2  0
 17  4  1  0
 18  4  1  0
 19  4  1  0
 20 13  1  0
 21 15  1  0
 22 20  1  0
  3  7  1  0
 12  6  2  0
  5 13  1  0
M  END

> <chembl_id>
CHEMBL6654

> <chembl_pref_name>
None

$$$$

     RDKit          2D

 71 72  0  0  1  0  0  0  0  0999 V2000
    8.6417   -3.8917    0.0000 N   0  0  0  0  0  0  0  0  0  0  0  0
    7.9292   -3.4667    0.0000 C   0  0  0  0  0  0  0  0  0  0  0  0
    9.5875   -2.7542    0.0000 C   0  0  0  0  0  0  0  0  0  0  0  0
   -1.3833   -3.8042    0.0000 C   0  0  0  0  0  0  0  0  0  0  0  0
   -0.6583   -3.3917    0.0000 C   0  0  0  0  0  0  0  0  0  0  0  0
    5.7792   -3.8667    0.0000 C   0  0  0  0  0  0  0  0  0  0  0  0
   -2.0958   -3.3792    0.0000 N   0  0  0  0  0  0  0  0  0  0  0  0
    6.5000   -3.4625    0.0000 N   0  0  0  0  0  0  0  0  0  0  0  0
   11.3375   -1.4500    0.0000 C   0  0  0  0  0  0  0  0  0  0  0  0
    4.3500   -3.8542    0.0000 N   0  0  0  0  0  0  0  0  0  0  0  0
    7.2167   -3.8792    0.0000 C   0  0  0  0  0  0  0  0  0  0  0  0
    9.4042   -3.5625    0.0000 C   0  0  0  0  0  0  0  0  0  0  0  0
   -2.8083   -3.7875    0.0000 C   0  0  0  0  0  0  0  0  0  0  0  0
    3.6375   -3.4292    0.0000 C   0  0  0  0  0  0  0  0  0  0  0  0
   10.3667   -2.5042    0.0000 N   0  0  0  0  0  0  0  0  0  0  0  0
    1.4875   -3.8292    0.0000 C   0  0  0  0  0  0  0  0  0  0  0  0
    0.0542   -3.8125    0.0000 N   0  0  0  0  0  0  0  0  0  0  0  0
    2.2042   -3.4167    0.0000 N   0  0  0  0  0  0  0  0  0  0  0  0
    5.0667   -3.4417    0.0000 C   0  0  0  0  0  0  0  0  0  0  0  0
    2.9167   -3.8417    0.0000 C   0  0  0  0  0  0  0  0  0  0  0  0
   10.5500   -1.7042    0.0000 N   0  0  0  0  0  0  0  0  0  0  0  0
   -3.5250   -3.3667    0.0000 C   0  0  0  0  0  0  0  0  0  0  0  0
    2.9125   -4.6667    0.0000 C   0  0  0  0  0  0  0  0  0  0  0  0
   -3.5208   -2.5417    0.0000 C   0  0  0  0  0  0  0  0  0  0  0  0
   -4.2458   -3.7792    0.0000 N   0  0  0  0  0  0  0  0  0  0  0  0
    0.7667   -3.4042    0.0000 C   0  0  0  0  0  0  0  0  0  0  0  0
   11.8625   -0.8042    0.0000 O   0  0  0  0  0  0  0  0  0  0  0  0
   -2.7958   -2.1292    0.0000 C   0  0  0  0  0  0  0  0  0  0  0  0
    3.6250   -5.0875    0.0000 C   0  0  0  0  0  0  0  0  0  0  0  0
   -4.2500   -4.6042    0.0000 C   0  0  0  0  0  0  0  0  0  0  0  0
    7.9417   -2.6417    0.0000 O   0  0  0  0  0  0  0  0  0  0  0  0
    8.9750   -2.1917    0.0000 O   0  0  0  0  0  0  0  0  0  0  0  0
    1.5042   -1.3417    0.0000 C   0  0  0  0  0  0  0  0  0  0  0  0
   11.6292   -2.2167    0.0000 O   0  0  0  0  0  0  0  0  0  0  0  0
   -0.6500   -2.5667    0.0000 O   0  0  0  0  0  0  0  0  0  0  0  0
    5.7750   -4.6917    0.0000 O   0  0  0  0  0  0  0  0  0  0  0  0
    3.6417   -2.6042    0.0000 O   0  0  0  0  0  0  0  0  0  0  0  0
   -2.8208   -4.6167    0.0000 O   0  0  0  0  0  0  0  0  0  0  0  0
    1.4792   -4.6542    0.0000 O   0  0  0  0  0  0  0  0  0  0  0  0
   -1.3875   -4.6292    0.0000 C   0  0  0  0  0  0  0  0  0  0  0  0
   -2.7958   -1.3042    0.0000 O   0  0  0  0  0  0  0  0  0  0  0  0
    3.6167   -5.9167    0.0000 O   0  0  0  0  0  0  0  0  0  0  0  0
   -4.9708   -5.0125    0.0000 O   0  0  0  0  0  0  0  0  0  0  0  0
    2.2292   -0.9417    0.0000 O   0  0  0  0  0  0  0  0  0  0  0  0
    0.7792   -2.5792    0.0000 C   0  0  0  0  0  0  0  0  0  0  0  0
    7.2042   -4.7042    0.0000 C   0  0  0  0  0  0  0  0  0  0  0  0
   12.6750   -0.9417    0.0000 C   0  0  0  0  0  0  0  0  0  0  0  0
    8.7292   -4.7125    0.0000 C   0  0  0  0  0  0  0  0  0  0  0  0
    5.0792   -2.6167    0.0000 C   0  0  0  0  0  0  0  0  0  0  0  0
    1.5042   -2.1667    0.0000 C   0  0  0  0  0  0  0  0  0  0  0  0
   14.3000   -1.2125    0.0000 C   0  0  0  0  0  0  0  0  0  0  0  0
   -2.0833   -2.5542    0.0000 O   0  0  0  0  0  0  0  0  0  0  0  0
    4.3417   -4.6792    0.0000 O   0  0  0  0  0  0  0  0  0  0  0  0
    0.7917   -0.9292    0.0000 O   0  0  0  0  0  0  0  0  0  0  0  0
   15.1125   -1.3500    0.0000 Cl  0  0  0  0  0  0  0  0  0  0  0  0
   13.1917   -0.3042    0.0000 C   0  0  0  0  0  0  0  0  0  0  0  0
   12.9625   -1.7167    0.0000 C   0  0  0  0  0  0  0  0  0  0  0  0
   13.7792   -1.8542    0.0000 C   0  0  0  0  0  0  0  0  0  0  0  0
   14.0042   -0.4417    0.0000 C   0  0  0  0  0  0  0  0  0  0  0  0
    9.9542   -4.1792    0.0000 C   0  0  0  0  0  0  0  0  0  0  0  0
   -0.6750   -5.0500    0.0000 O   0  0  0  0  0  0  0  0  0  0  0  0
    9.9417   -1.1417    0.0000 C   0  0  0  0  0  0  0  0  0  0  0  0
    9.5292   -4.8917    0.0000 C   0  0  0  0  0  0  0  0  0  0  0  0
   -3.5375   -5.0167    0.0000 C   0  0  0  0  0  0  0  0  0  0  0  0
   -2.1083   -5.0375    0.0000 C   0  0  0  0  0  0  0  0  0  0  0  0
    6.4875   -5.1125    0.0000 C   0  0  0  0  0  0  0  0  0  0  0  0
    7.9167   -5.1250    0.0000 C   0  0  0  0  0  0  0  0  0  0  0  0
    5.8000   -2.2125    0.0000 C   0  0  0  0  0  0  0  0  0  0  0  0
    4.3667   -2.2000    0.0000 C   0  0  0  0  0  0  0  0  0  0  0  0
   10.1167   -0.3375    0.0000 C   0  0  0  0  0  0  0  0  0  0  0  0
    9.5125    0.2208    0.0000 C   0  0  0  0  0  0  0  0  0  0  0  0
  2  1  1  0
 12  3  1  1
  4  5  1  0
  5 17  1  0
  6  8  1  0
  4  7  1  6
 11  8  1  6
  9 21  1  0
 19 10  1  1
 11  2  1  0
 12  1  1  0
 13  7  1  0
 14 10  1  0
 15  3  1  0
 16 18  1  0
 26 17  1  1
 20 18  1  6
 19  6  1  0
 20 14  1  0
 21 15  1  0
 22 13  1  0
 20 23  1  0
 22 24  1  1
 25 22  1  0
 26 16  1  0
 27  9  1  0
 28 24  1  0
 29 23  1  0
 30 25  1  0
 31  2  2  0
 32  3  2  0
 33 50  1  0
 34  9  2  0
 35  5  2  0
 36  6  2  0
 37 14  2  0
 38 13  2  0
 39 16  2  0
  4 40  1  0
 41 28  2  0
 42 29  2  0
 43 30  2  0
 44 33  2  0
 26 45  1  0
 11 46  1  0
 47 27  1  0
 48  1  1  0
 19 49  1  0
 50 45  1  0
 51 58  2  0
 52 28  1  0
 53 29  1  0
 54 33  1  0
 55 51  1  0
 56 47  1  0
 57 47  2  0
 58 57  1  0
 59 56  2  0
 12 60  1  0
 40 61  1  6
 62 21  1  0
 63 48  1  0
 64 30  1  0
 65 40  1  0
 66 46  1  0
 67 46  1  0
 68 49  1  0
 69 49  1  0
 70 62  1  0
 71 70  1  0
 60 63  1  0
 59 51  1  0
M  END

> <chembl_id>
CHEMBL413262

> <chembl_pref_name>
None

$$$$

     RDKit          2D

 73 74  0  0  1  0  0  0  0  0999 V2000
    9.1417   -4.5917    0.0000 N   0  0  0  0  0  0  0  0  0  0  0  0
    8.4292   -4.1667    0.0000 C   0  0  0  0  0  0  0  0  0  0  0  0
   13.1417   -0.0667    0.0000 N   0  0  0  0  0  0  0  0  0  0  0  0
   10.0792   -3.4542    0.0000 C   0  0  0  0  0  0  0  0  0  0  0  0
   -0.8833   -4.5042    0.0000 C   0  0  0  0  0  0  0  0  0  0  0  0
   -0.1583   -4.0917    0.0000 C   0  0  0  0  0  0  0  0  0  0  0  0
   11.8292   -2.1542    0.0000 C   0  0  0  0  0  0  0  0  0  0  0  0
    6.2792   -4.5667    0.0000 C   0  0  0  0  0  0  0  0  0  0  0  0
   -1.5958   -4.0792    0.0000 N   0  0  0  0  0  0  0  0  0  0  0  0
   13.5292   -0.8000    0.0000 C   0  0  0  0  0  0  0  0  0  0  0  0
    6.9917   -4.1625    0.0000 N   0  0  0  0  0  0  0  0  0  0  0  0
    4.8417   -4.5542    0.0000 N   0  0  0  0  0  0  0  0  0  0  0  0
    7.7125   -4.5792    0.0000 C   0  0  0  0  0  0  0  0  0  0  0  0
    9.9000   -4.2542    0.0000 C   0  0  0  0  0  0  0  0  0  0  0  0
   -2.3125   -4.4875    0.0000 C   0  0  0  0  0  0  0  0  0  0  0  0
    4.1292   -4.1292    0.0000 C   0  0  0  0  0  0  0  0  0  0  0  0
   10.8667   -3.2042    0.0000 N   0  0  0  0  0  0  0  0  0  0  0  0
    1.9792   -4.5292    0.0000 C   0  0  0  0  0  0  0  0  0  0  0  0
    0.5500   -4.5042    0.0000 N   0  0  0  0  0  0  0  0  0  0  0  0
    2.7000   -4.1167    0.0000 N   0  0  0  0  0  0  0  0  0  0  0  0
    5.5667   -4.1417    0.0000 C   0  0  0  0  0  0  0  0  0  0  0  0
    3.4167   -4.5417    0.0000 C   0  0  0  0  0  0  0  0  0  0  0  0
   11.0417   -2.4042    0.0000 N   0  0  0  0  0  0  0  0  0  0  0  0
   12.2750   -1.4542    0.0000 O   0  0  0  0  0  0  0  0  0  0  0  0
   -3.0333   -4.0667    0.0000 C   0  0  0  0  0  0  0  0  0  0  0  0
   13.1000   -1.4917    0.0000 C   0  0  0  0  0  0  0  0  0  0  0  0
    3.4042   -5.3667    0.0000 C   0  0  0  0  0  0  0  0  0  0  0  0
   -3.0208   -3.2417    0.0000 C   0  0  0  0  0  0  0  0  0  0  0  0
   -3.7458   -4.4792    0.0000 N   0  0  0  0  0  0  0  0  0  0  0  0
    1.2667   -4.1042    0.0000 C   0  0  0  0  0  0  0  0  0  0  0  0
    4.1167   -5.7875    0.0000 C   0  0  0  0  0  0  0  0  0  0  0  0
   -2.3000   -2.8292    0.0000 C   0  0  0  0  0  0  0  0  0  0  0  0
   13.5792    0.6333    0.0000 O   0  0  0  0  0  0  0  0  0  0  0  0
   -3.7583   -5.3042    0.0000 C   0  0  0  0  0  0  0  0  0  0  0  0
   12.3167   -0.0292    0.0000 O   0  0  0  0  0  0  0  0  0  0  0  0
    8.4375   -3.3417    0.0000 O   0  0  0  0  0  0  0  0  0  0  0  0
    9.4667   -2.8917    0.0000 O   0  0  0  0  0  0  0  0  0  0  0  0
    2.0042   -2.0417    0.0000 C   0  0  0  0  0  0  0  0  0  0  0  0
   12.2125   -2.8875    0.0000 O   0  0  0  0  0  0  0  0  0  0  0  0
   -0.1583   -3.2667    0.0000 O   0  0  0  0  0  0  0  0  0  0  0  0
    6.2667   -5.3917    0.0000 O   0  0  0  0  0  0  0  0  0  0  0  0
   -2.3208   -5.3167    0.0000 O   0  0  0  0  0  0  0  0  0  0  0  0
    4.1417   -3.3042    0.0000 O   0  0  0  0  0  0  0  0  0  0  0  0
    1.9750   -5.3542    0.0000 O   0  0  0  0  0  0  0  0  0  0  0  0
   -0.8958   -5.3292    0.0000 C   0  0  0  0  0  0  0  0  0  0  0  0
   -2.2958   -2.0042    0.0000 O   0  0  0  0  0  0  0  0  0  0  0  0
    4.1125   -6.6167    0.0000 O   0  0  0  0  0  0  0  0  0  0  0  0
   -4.4708   -5.7125    0.0000 O   0  0  0  0  0  0  0  0  0  0  0  0
    2.7250   -1.6417    0.0000 O   0  0  0  0  0  0  0  0  0  0  0  0
    1.2792   -3.2792    0.0000 C   0  0  0  0  0  0  0  0  0  0  0  0
    7.7042   -5.4042    0.0000 C   0  0  0  0  0  0  0  0  0  0  0  0
    9.2250   -5.4125    0.0000 C   0  0  0  0  0  0  0  0  0  0  0  0
    5.5750   -3.3167    0.0000 C   0  0  0  0  0  0  0  0  0  0  0  0
    2.0000   -2.8667    0.0000 C   0  0  0  0  0  0  0  0  0  0  0  0
   -1.5875   -3.2542    0.0000 O   0  0  0  0  0  0  0  0  0  0  0  0
    4.8417   -5.3792    0.0000 O   0  0  0  0  0  0  0  0  0  0  0  0
    1.2917   -1.6292    0.0000 O   0  0  0  0  0  0  0  0  0  0  0  0
   14.3542   -0.8292    0.0000 C   0  0  0  0  0  0  0  0  0  0  0  0
   10.4500   -4.8792    0.0000 C   0  0  0  0  0  0  0  0  0  0  0  0
   -0.1833   -5.7500    0.0000 O   0  0  0  0  0  0  0  0  0  0  0  0
   10.4375   -1.8417    0.0000 C   0  0  0  0  0  0  0  0  0  0  0  0
   13.4750   -2.2250    0.0000 C   0  0  0  0  0  0  0  0  0  0  0  0
   10.0292   -5.5917    0.0000 C   0  0  0  0  0  0  0  0  0  0  0  0
   -3.0458   -5.7167    0.0000 C   0  0  0  0  0  0  0  0  0  0  0  0
   -1.6125   -5.7375    0.0000 C   0  0  0  0  0  0  0  0  0  0  0  0
    8.4167   -5.8250    0.0000 C   0  0  0  0  0  0  0  0  0  0  0  0
    6.9792   -5.8125    0.0000 C   0  0  0  0  0  0  0  0  0  0  0  0
    4.8625   -2.9000    0.0000 C   0  0  0  0  0  0  0  0  0  0  0  0
    6.2917   -2.9125    0.0000 C   0  0  0  0  0  0  0  0  0  0  0  0
   10.6167   -1.0375    0.0000 C   0  0  0  0  0  0  0  0  0  0  0  0
   14.7417   -1.5625    0.0000 C   0  0  0  0  0  0  0  0  0  0  0  0
   14.3000   -2.2542    0.0000 C   0  0  0  0  0  0  0  0  0  0  0  0
   10.0042   -0.4792    0.0000 C   0  0  0  0  0  0  0  0  0  0  0  0
  2  1  1  0
  3 10  1  0
 14  4  1  1
  5  6  1  0
  6 19  1  0
  7 23  1  0
  8 11  1  0
  5  9  1  6
 10 26  1  0
 13 11  1  6
 21 12  1  1
 13  2  1  0
 14  1  1  0
 15  9  1  0
 16 12  1  0
 17  4  1  0
 18 20  1  0
 30 19  1  1
 22 20  1  6
 21  8  1  0
 22 16  1  0
 23 17  1  0
 24  7  1  0
 25 15  1  0
 26 24  1  0
 22 27  1  0
 25 28  1  1
 29 25  1  0
 30 18  1  0
 31 27  1  0
 32 28  1  0
 33  3  1  0
 34 29  1  0
 35  3  2  0
 36  2  2  0
 37  4  2  0
 38 54  1  0
 39  7  2  0
 40  6  2  0
 41  8  2  0
 42 15  2  0
 43 16  2  0
 44 18  2  0
  5 45  1  0
 46 32  2  0
 47 31  2  0
 48 34  2  0
 49 38  2  0
 30 50  1  0
 13 51  1  0
 52  1  1  0
 21 53  1  0
 54 50  1  0
 55 32  1  0
 56 31  1  0
 57 38  1  0
 58 10  2  0
 14 59  1  0
 45 60  1  6
 61 23  1  0
 62 26  2  0
 63 52  1  0
 64 34  1  0
 65 45  1  0
 66 51  1  0
 67 51  1  0
 68 53  1  0
 69 53  1  0
 70 61  1  0
 71 72  2  0
 72 62  1  0
 73 70  1  0
 59 63  1  0
 58 71  1  0
M  CHG  2   3   1  33  -1
M  END

> <chembl_id>
CHEMBL387089

> <chembl_pref_name>
None

$$$$

     RDKit          2D

 73 74  0  0  1  0  0  0  0  0999 V2000
    9.0417   -5.4000    0.0000 N   0  0  0  0  0  0  0  0  0  0  0  0
    8.3292   -4.9792    0.0000 C   0  0  0  0  0  0  0  0  0  0  0  0
    9.9875   -4.2542    0.0000 C   0  0  0  0  0  0  0  0  0  0  0  0
   -0.9833   -5.3125    0.0000 C   0  0  0  0  0  0  0  0  0  0  0  0
   14.9292   -0.9292    0.0000 N   0  0  0  0  0  0  0  0  0  0  0  0
   -0.2583   -4.9042    0.0000 C   0  0  0  0  0  0  0  0  0  0  0  0
    6.1792   -5.3750    0.0000 C   0  0  0  0  0  0  0  0  0  0  0  0
   -1.6875   -4.8917    0.0000 N   0  0  0  0  0  0  0  0  0  0  0  0
    6.9000   -4.9667    0.0000 N   0  0  0  0  0  0  0  0  0  0  0  0
   11.7167   -2.9167    0.0000 C   0  0  0  0  0  0  0  0  0  0  0  0
    4.7500   -5.3625    0.0000 N   0  0  0  0  0  0  0  0  0  0  0  0
    7.6167   -5.3917    0.0000 C   0  0  0  0  0  0  0  0  0  0  0  0
    9.8042   -5.0667    0.0000 C   0  0  0  0  0  0  0  0  0  0  0  0
   -2.4083   -5.2917    0.0000 C   0  0  0  0  0  0  0  0  0  0  0  0
    4.0375   -4.9417    0.0000 C   0  0  0  0  0  0  0  0  0  0  0  0
   10.7667   -4.0167    0.0000 N   0  0  0  0  0  0  0  0  0  0  0  0
    1.8875   -5.3375    0.0000 C   0  0  0  0  0  0  0  0  0  0  0  0
    0.4500   -5.3167    0.0000 N   0  0  0  0  0  0  0  0  0  0  0  0
    2.6042   -4.9292    0.0000 N   0  0  0  0  0  0  0  0  0  0  0  0
    5.4667   -4.9542    0.0000 C   0  0  0  0  0  0  0  0  0  0  0  0
    3.3167   -5.3500    0.0000 C   0  0  0  0  0  0  0  0  0  0  0  0
   10.9500   -3.2125    0.0000 N   0  0  0  0  0  0  0  0  0  0  0  0
   -3.1250   -4.8792    0.0000 C   0  0  0  0  0  0  0  0  0  0  0  0
    3.3125   -6.1750    0.0000 C   0  0  0  0  0  0  0  0  0  0  0  0
   -3.1208   -4.0542    0.0000 C   0  0  0  0  0  0  0  0  0  0  0  0
   -3.8458   -5.2875    0.0000 N   0  0  0  0  0  0  0  0  0  0  0  0
    1.1667   -4.9167    0.0000 C   0  0  0  0  0  0  0  0  0  0  0  0
   11.8500   -2.1042    0.0000 O   0  0  0  0  0  0  0  0  0  0  0  0
    4.0250   -6.5917    0.0000 C   0  0  0  0  0  0  0  0  0  0  0  0
   -2.3958   -3.6417    0.0000 C   0  0  0  0  0  0  0  0  0  0  0  0
   14.1542   -1.2167    0.0000 C   0  0  0  0  0  0  0  0  0  0  0  0
   -3.8500   -6.1125    0.0000 C   0  0  0  0  0  0  0  0  0  0  0  0
   15.5667   -1.4417    0.0000 O   0  0  0  0  0  0  0  0  0  0  0  0
    8.3417   -4.1542    0.0000 O   0  0  0  0  0  0  0  0  0  0  0  0
   15.0542   -0.1125    0.0000 O   0  0  0  0  0  0  0  0  0  0  0  0
    9.3750   -3.7042    0.0000 O   0  0  0  0  0  0  0  0  0  0  0  0
    1.9042   -2.8542    0.0000 C   0  0  0  0  0  0  0  0  0  0  0  0
   12.3542   -3.4375    0.0000 O   0  0  0  0  0  0  0  0  0  0  0  0
   -0.2500   -4.0667    0.0000 O   0  0  0  0  0  0  0  0  0  0  0  0
    6.1750   -6.2000    0.0000 O   0  0  0  0  0  0  0  0  0  0  0  0
   -2.4208   -6.1250    0.0000 O   0  0  0  0  0  0  0  0  0  0  0  0
    4.0417   -4.1167    0.0000 O   0  0  0  0  0  0  0  0  0  0  0  0
    1.8792   -6.1625    0.0000 O   0  0  0  0  0  0  0  0  0  0  0  0
   -0.9875   -6.1375    0.0000 C   0  0  0  0  0  0  0  0  0  0  0  0
    4.0167   -7.4250    0.0000 O   0  0  0  0  0  0  0  0  0  0  0  0
   -2.3958   -2.8167    0.0000 O   0  0  0  0  0  0  0  0  0  0  0  0
   -4.5708   -6.5167    0.0000 O   0  0  0  0  0  0  0  0  0  0  0  0
    2.6292   -2.4500    0.0000 O   0  0  0  0  0  0  0  0  0  0  0  0
    1.1792   -4.0917    0.0000 C   0  0  0  0  0  0  0  0  0  0  0  0
   14.0292   -2.0375    0.0000 C   0  0  0  0  0  0  0  0  0  0  0  0
   13.5125   -0.7042    0.0000 C   0  0  0  0  0  0  0  0  0  0  0  0
    7.6042   -6.2167    0.0000 C   0  0  0  0  0  0  0  0  0  0  0  0
   12.6167   -1.8042    0.0000 C   0  0  0  0  0  0  0  0  0  0  0  0
    9.1292   -6.2167    0.0000 C   0  0  0  0  0  0  0  0  0  0  0  0
    5.4792   -4.1292    0.0000 C   0  0  0  0  0  0  0  0  0  0  0  0
    1.9042   -3.6792    0.0000 C   0  0  0  0  0  0  0  0  0  0  0  0
   -1.6833   -4.0625    0.0000 O   0  0  0  0  0  0  0  0  0  0  0  0
    4.7417   -6.1875    0.0000 O   0  0  0  0  0  0  0  0  0  0  0  0
    1.1917   -2.4375    0.0000 O   0  0  0  0  0  0  0  0  0  0  0  0
   13.2542   -2.3292    0.0000 C   0  0  0  0  0  0  0  0  0  0  0  0
   12.7417   -1.0000    0.0000 C   0  0  0  0  0  0  0  0  0  0  0  0
   10.3542   -5.6917    0.0000 C   0  0  0  0  0  0  0  0  0  0  0  0
   -0.2750   -6.5542    0.0000 O   0  0  0  0  0  0  0  0  0  0  0  0
   10.3417   -2.6542    0.0000 C   0  0  0  0  0  0  0  0  0  0  0  0
    9.9292   -6.4042    0.0000 C   0  0  0  0  0  0  0  0  0  0  0  0
   -3.1375   -6.5292    0.0000 C   0  0  0  0  0  0  0  0  0  0  0  0
   -1.7083   -6.5417    0.0000 C   0  0  0  0  0  0  0  0  0  0  0  0
    6.8875   -6.6167    0.0000 C   0  0  0  0  0  0  0  0  0  0  0  0
    8.3167   -6.6292    0.0000 C   0  0  0  0  0  0  0  0  0  0  0  0
    6.2000   -3.7167    0.0000 C   0  0  0  0  0  0  0  0  0  0  0  0
    4.7667   -3.7042    0.0000 C   0  0  0  0  0  0  0  0  0  0  0  0
   10.5167   -1.8417    0.0000 C   0  0  0  0  0  0  0  0  0  0  0  0
    9.9125   -1.2917    0.0000 C   0  0  0  0  0  0  0  0  0  0  0  0
  2  1  1  0
 13  3  1  1
  4  6  1  0
  5 31  1  0
  6 18  1  0
  7  9  1  0
  4  8  1  6
 12  9  1  6
 10 22  1  0
 20 11  1  1
 12  2  1  0
 13  1  1  0
 14  8  1  0
 15 11  1  0
 16  3  1  0
 17 19  1  0
 27 18  1  1
 21 19  1  6
 20  7  1  0
 21 15  1  0
 22 16  1  0
 23 14  1  0
 21 24  1  0
 23 25  1  1
 26 23  1  0
 27 17  1  0
 28 10  1  0
 29 24  1  0
 30 25  1  0
 31 51  1  0
 32 26  1  0
 33  5  1  0
 34  2  2  0
 35  5  2  0
 36  3  2  0
 37 56  1  0
 38 10  2  0
 39  6  2  0
 40  7  2  0
 41 14  2  0
 42 15  2  0
 43 17  2  0
  4 44  1  0
 45 29  2  0
 46 30  2  0
 47 32  2  0
 48 37  2  0
 27 49  1  0
 50 60  1  0
 51 61  2  0
 12 52  1  0
 53 28  1  0
 54  1  1  0
 20 55  1  0
 56 49  1  0
 57 30  1  0
 58 29  1  0
 59 37  1  0
 60 53  2  0
 61 53  1  0
 13 62  1  0
 44 63  1  6
 64 22  1  0
 65 54  1  0
 66 32  1  0
 67 44  1  0
 68 52  1  0
 69 52  1  0
 70 55  1  0
 71 55  1  0
 72 64  1  0
 73 72  1  0
 62 65  1  0
 31 50  2  0
M  CHG  2   5   1  33  -1
M  END

> <chembl_id>
CHEMBL263608

> <chembl_pref_name>
None

$$$$

     RDKit          2D

 21 23  0  0  0  0  0  0  0  0999 V2000
    5.2448   -4.4343    0.0000 C   0  0  0  0  0  0  0  0  0  0  0  0
    5.2436   -5.2610    0.0000 C   0  0  0  0  0  0  0  0  0  0  0  0
    5.9579   -5.6736    0.0000 C   0  0  0  0  0  0  0  0  0  0  0  0
    5.9561   -4.0218    0.0000 C   0  0  0  0  0  0  0  0  0  0  0  0
    6.6702   -5.2602    0.0000 C   0  0  0  0  0  0  0  0  0  0  0  0
    6.6709   -4.4306    0.0000 C   0  0  0  0  0  0  0  0  0  0  0  0
    7.3241   -5.7799    0.0000 C   0  0  0  0  0  0  0  0  0  0  0  0
    8.1375   -5.5920    0.0000 N   0  0  0  0  0  0  0  0  0  0  0  0
    8.4954   -4.8384    0.0000 C   0  0  0  0  0  0  0  0  0  0  0  0
    7.1423   -6.5840    0.0000 O   0  0  0  0  0  0  0  0  0  0  0  0
    8.6540   -6.2344    0.0000 C   0  0  0  0  0  0  0  0  0  0  0  0
    7.3200   -3.9045    0.0000 N   0  0  0  0  0  0  0  0  0  0  0  0
    8.1351   -4.0882    0.0000 C   0  0  0  0  0  0  0  0  0  0  0  0
    8.5616   -3.3698    0.0000 C   0  0  0  0  0  0  0  0  0  0  0  0
    8.0102   -2.7421    0.0000 N   0  0  0  0  0  0  0  0  0  0  0  0
    7.2429   -3.0727    0.0000 C   0  0  0  0  0  0  0  0  0  0  0  0
    9.3825   -3.2937    0.0000 C   0  0  0  0  0  0  0  0  0  0  0  0
    9.8594   -3.9659    0.0000 O   0  0  0  0  0  0  0  0  0  0  0  0
    9.7275   -2.5441    0.0000 O   0  0  0  0  0  0  0  0  0  0  0  0
   10.6802   -3.8891    0.0000 C   0  0  0  0  0  0  0  0  0  0  0  0
   11.1572   -4.5615    0.0000 C   0  0  0  0  0  0  0  0  0  0  0  0
  4  1  1  0
  7 10  2  0
  8 11  1  0
 12 13  1  0
  2  3  1  0
  5  6  1  0
  6 12  1  0
  3  5  2  0
  5  7  1  0
 13 14  2  0
 14 15  1  0
 15 16  2  0
 16 12  1  0
  1  2  2  0
 14 17  1  0
  7  8  1  0
  6  4  2  0
 17 18  1  0
 17 19  2  0
 13  9  1  0
 18 20  1  0
  8  9  1  0
 20 21  1  0
M  END

> <chembl_id>
CHEMBL267665

> <chembl_pref_name>
RO-147437

$$$$

     RDKit          2D

 19 21  0  0  0  0  0  0  0  0999 V2000
    4.1542   -1.7292    0.0000 C   0  0  0  0  0  0  0  0  0  0  0  0
    4.1542   -1.1292    0.0000 C   0  0  0  0  0  0  0  0  0  0  0  0
    4.6750   -2.0292    0.0000 C   0  0  0  0  0  0  0  0  0  0  0  0
    5.1917   -1.7292    0.0000 C   0  0  0  0  0  0  0  0  0  0  0  0
    5.1917   -1.1250    0.0000 C   0  0  0  0  0  0  0  0  0  0  0  0
    4.6750   -0.8250    0.0000 C   0  0  0  0  0  0  0  0  0  0  0  0
    3.6417   -2.0292    0.0000 O   0  0  0  0  0  0  0  0  0  0  0  0
    3.6417   -0.8292    0.0000 C   0  0  0  0  0  0  0  0  0  0  0  0
    3.1167   -1.7292    0.0000 C   0  0  0  0  0  0  0  0  0  0  0  0
    3.1167   -1.1250    0.0000 C   0  0  0  0  0  0  0  0  0  0  0  0
    5.7667   -1.9167    0.0000 O   0  0  0  0  0  0  0  0  0  0  0  0
    5.7667   -0.9375    0.0000 C   0  0  0  0  0  0  0  0  0  0  0  0
    6.1250   -1.4250    0.0000 C   0  0  0  0  0  0  0  0  0  0  0  0
    2.6000   -2.0292    0.0000 O   0  0  0  0  0  0  0  0  0  0  0  0
    4.6750   -2.6292    0.0000 O   0  0  0  0  0  0  0  0  0  0  0  0
    4.6667   -0.2167    0.0000 C   0  0  0  0  0  0  0  0  0  0  0  0
    5.1917    0.0750    0.0000 O   0  0  0  0  0  0  0  0  0  0  0  0
    4.1542   -2.9292    0.0000 C   0  0  0  0  0  0  0  0  0  0  0  0
    5.7042   -0.2167    0.0000 C   0  0  0  0  0  0  0  0  0  0  0  0
  2  1  2  0
  3  1  1  0
  4  3  2  0
  5  4  1  0
  6  2  1  0
  7  1  1  0
  8  2  1  0
  9  7  1  0
 10  9  1  0
 11  4  1  0
 12  5  1  0
 13 11  1  0
 14  9  2  0
 15  3  1  0
 16  6  1  0
 17 16  1  0
 18 15  1  0
 19 17  1  0
  6  5  2  0
  8 10  2  0
 13 12  2  0
M  END

> <chembl_id>
CHEMBL6835

> <chembl_pref_name>
None

$$$$

     RDKit          2D

 21 22  0  0  0  0  0  0  0  0999 V2000
    1.0250   -3.8417    0.0000 C   0  0  0  0  0  0  0  0  0  0  0  0
    1.5417   -4.1292    0.0000 C   0  0  0  0  0  0  0  0  0  0  0  0
    2.0625   -3.8375    0.0000 C   0  0  0  0  0  0  0  0  0  0  0  0
    0.5042   -4.1417    0.0000 C   0  0  0  0  0  0  0  0  0  0  0  0
    2.0667   -3.2292    0.0000 C   0  0  0  0  0  0  0  0  0  0  0  0
   -0.0125   -3.8417    0.0000 C   0  0  0  0  0  0  0  0  0  0  0  0
    2.5792   -4.1292    0.0000 C   0  0  0  0  0  0  0  0  0  0  0  0
    0.5042   -4.7500    0.0000 C   0  0  0  0  0  0  0  0  0  0  0  0
   -0.5333   -4.7500    0.0000 C   0  0  0  0  0  0  0  0  0  0  0  0
    3.1000   -3.2292    0.0000 C   0  0  0  0  0  0  0  0  0  0  0  0
   -0.5333   -4.1500    0.0000 C   0  0  0  0  0  0  0  0  0  0  0  0
    3.1042   -3.8375    0.0000 C   0  0  0  0  0  0  0  0  0  0  0  0
   -0.0125   -5.0500    0.0000 C   0  0  0  0  0  0  0  0  0  0  0  0
    2.5792   -2.9292    0.0000 C   0  0  0  0  0  0  0  0  0  0  0  0
    2.0667   -5.6375    0.0000 I   0  0  0  0  0  0  0  0  0  0  0  0
   -1.0500   -5.0500    0.0000 O   0  0  0  0  0  0  0  0  0  0  0  0
    3.6167   -2.9292    0.0000 O   0  0  0  0  0  0  0  0  0  0  0  0
    1.5500   -4.7375    0.0000 C   0  0  0  0  0  0  0  0  0  0  0  0
    1.0167   -3.2417    0.0000 C   0  0  0  0  0  0  0  0  0  0  0  0
    2.0667   -5.0375    0.0000 C   0  0  0  0  0  0  0  0  0  0  0  0
    0.5917   -2.8167    0.0000 C   0  0  0  0  0  0  0  0  0  0  0  0
  2  1  1  0
  3  2  1  0
  4  1  1  0
  5  3  2  0
  6  4  2  0
  7  3  1  0
  8  4  1  0
  9 13  1  0
 10 12  1  0
 11  6  1  0
 12  7  2  0
 13  8  2  0
 14  5  1  0
 15 20  1  0
 16  9  1  0
 17 10  1  0
 18  2  1  0
 19  1  1  0
 20 18  1  0
 21 19  1  0
  9 11  2  0
 14 10  2  0
M  END

> <chembl_id>
CHEMBL268856

> <chembl_pref_name>
None

$$$$

     RDKit          2D

 20 23  0  0  0  0  0  0  0  0999 V2000
    5.2875   -6.4000    0.0000 C   0  0  0  0  0  0  0  0  0  0  0  0
    5.2792   -7.2167    0.0000 C   0  0  0  0  0  0  0  0  0  0  0  0
    4.5625   -7.6292    0.0000 C   0  0  0  0  0  0  0  0  0  0  0  0
    3.8500   -7.2125    0.0000 C   0  0  0  0  0  0  0  0  0  0  0  0
    3.1375   -7.6292    0.0000 C   0  0  0  0  0  0  0  0  0  0  0  0
    3.1292   -8.4542    0.0000 C   0  0  0  0  0  0  0  0  0  0  0  0
    4.5750   -5.9792    0.0000 C   0  0  0  0  0  0  0  0  0  0  0  0
    3.8542   -6.3875    0.0000 C   0  0  0  0  0  0  0  0  0  0  0  0
    4.5667   -8.4542    0.0000 C   0  0  0  0  0  0  0  0  0  0  0  0
    6.0625   -7.4792    0.0000 C   0  0  0  0  0  0  0  0  0  0  0  0
    2.4167   -7.2167    0.0000 C   0  0  0  0  0  0  0  0  0  0  0  0
    6.0750   -6.1500    0.0000 C   0  0  0  0  0  0  0  0  0  0  0  0
    3.8500   -8.8667    0.0000 C   0  0  0  0  0  0  0  0  0  0  0  0
    2.4167   -8.8667    0.0000 C   0  0  0  0  0  0  0  0  0  0  0  0
    6.5542   -6.8167    0.0000 C   0  0  0  0  0  0  0  0  0  0  0  0
    1.7042   -8.4542    0.0000 C   0  0  0  0  0  0  0  0  0  0  0  0
    1.7042   -7.6292    0.0000 C   0  0  0  0  0  0  0  0  0  0  0  0
    5.2792   -5.5750    0.0000 C   0  0  0  0  0  0  0  0  0  0  0  0
    6.3292   -5.3667    0.0000 O   0  0  0  0  0  0  0  0  0  0  0  0
    0.9917   -8.8667    0.0000 O   0  0  0  0  0  0  0  0  0  0  0  0
  2  1  1  0
  3  2  1  0
  4  8  1  0
  5  4  1  0
  6  5  1  0
  7  1  1  0
  8  7  1  0
  9  3  1  0
 10  2  1  0
 11  5  2  0
 12  1  1  0
 13  9  1  0
 14  6  2  0
 15 12  1  0
 16 17  2  0
 17 11  1  0
 18  1  1  0
 19 12  1  0
 20 16  1  0
 10 15  1  0
  3  4  1  0
  6 13  1  0
 16 14  1  0
M  END

> <chembl_id>
CHEMBL412

> <chembl_pref_name>
None

$$$$

     RDKit          2D

 20 22  0  0  0  0  0  0  0  0999 V2000
    6.5875   -7.2750    0.0000 N   0  0  0  0  0  0  0  0  0  0  0  0
    7.3500   -6.8292    0.0000 C   0  0  0  0  0  0  0  0  0  0  0  0
    8.1167   -7.2667    0.0000 N   0  0  0  0  0  0  0  0  0  0  0  0
    9.6417   -8.1417    0.0000 N   0  0  0  0  0  0  0  0  0  0  0  0
    6.5792   -5.5042    0.0000 N   0  0  0  0  0  0  0  0  0  0  0  0
   10.2625   -8.7625    0.0000 C   0  0  0  0  0  0  0  0  0  0  0  0
    5.8167   -5.9500    0.0000 C   0  0  0  0  0  0  0  0  0  0  0  0
    5.8167   -6.8292    0.0000 C   0  0  0  0  0  0  0  0  0  0  0  0
    5.0542   -5.5042    0.0000 C   0  0  0  0  0  0  0  0  0  0  0  0
    7.3417   -5.9417    0.0000 C   0  0  0  0  0  0  0  0  0  0  0  0
    8.8750   -6.8167    0.0000 C   0  0  0  0  0  0  0  0  0  0  0  0
    8.1167   -8.1500    0.0000 C   0  0  0  0  0  0  0  0  0  0  0  0
    8.8792   -8.5875    0.0000 C   0  0  0  0  0  0  0  0  0  0  0  0
    9.6417   -7.2625    0.0000 C   0  0  0  0  0  0  0  0  0  0  0  0
   10.0292   -9.6167    0.0000 O   0  0  0  0  0  0  0  0  0  0  0  0
    5.0542   -7.2792    0.0000 C   0  0  0  0  0  0  0  0  0  0  0  0
    4.2917   -5.9500    0.0000 C   0  0  0  0  0  0  0  0  0  0  0  0
    4.2917   -6.8375    0.0000 C   0  0  0  0  0  0  0  0  0  0  0  0
    3.5292   -5.5125    0.0000 Cl  0  0  0  0  0  0  0  0  0  0  0  0
   11.1125   -8.5375    0.0000 C   0  0  0  0  0  0  0  0  0  0  0  0
  2  1  2  0
  3  2  1  0
  4 13  1  0
  5  7  1  0
  6  4  1  0
  7  8  1  0
  8  1  1  0
  9  7  2  0
 10  2  1  0
 11  3  1  0
 12  3  1  0
 13 12  1  0
 14 11  1  0
 15  6  2  0
 16  8  2  0
 17 18  2  0
 18 16  1  0
 19 17  1  0
 20  6  1  0
  5 10  2  0
 17  9  1  0
 14  4  1  0
M  END

> <chembl_id>
CHEMBL6916

> <chembl_pref_name>
None

$$$$

     RDKit          2D

 18 20  0  0  0  0  0  0  0  0999 V2000
    2.1877   -4.7595    0.0000 N   0  0  0  0  0  0  0  0  0  0  0  0
    2.9000   -4.3431    0.0000 C   0  0  0  0  0  0  0  0  0  0  0  0
    3.6161   -4.7518    0.0000 N   0  0  0  0  0  0  0  0  0  0  0  0
    2.1800   -3.1055    0.0000 N   0  0  0  0  0  0  0  0  0  0  0  0
    1.4678   -3.5219    0.0000 C   0  0  0  0  0  0  0  0  0  0  0  0
    1.4678   -4.3431    0.0000 C   0  0  0  0  0  0  0  0  0  0  0  0
    5.0405   -5.5690    0.0000 N   0  0  0  0  0  0  0  0  0  0  0  0
    0.7556   -3.1055    0.0000 C   0  0  0  0  0  0  0  0  0  0  0  0
    2.8922   -3.5142    0.0000 C   0  0  0  0  0  0  0  0  0  0  0  0
    3.6161   -5.5768    0.0000 C   0  0  0  0  0  0  0  0  0  0  0  0
    4.3244   -4.3314    0.0000 C   0  0  0  0  0  0  0  0  0  0  0  0
    0.7556   -4.7634    0.0000 C   0  0  0  0  0  0  0  0  0  0  0  0
    0.0434   -3.5219    0.0000 C   0  0  0  0  0  0  0  0  0  0  0  0
    5.0405   -4.7478    0.0000 C   0  0  0  0  0  0  0  0  0  0  0  0
    4.3283   -5.9854    0.0000 C   0  0  0  0  0  0  0  0  0  0  0  0
    0.0434   -4.3509    0.0000 C   0  0  0  0  0  0  0  0  0  0  0  0
   -0.6688   -3.1133    0.0000 Cl  0  0  0  0  0  0  0  0  0  0  0  0
    5.6204   -6.1489    0.0000 C   0  0  0  0  0  0  0  0  0  0  0  0
  2  1  2  0
  3  2  1  0
  4  5  1  0
  5  6  1  0
  6  1  1  0
  7 14  1  0
  8  5  2  0
  9  2  1  0
 10  3  1  0
 11  3  1  0
 12  6  2  0
 13 16  2  0
 14 11  1  0
 15 10  1  0
 16 12  1  0
 17 13  1  0
 18  7  1  0
  4  9  2  0
 13  8  1  0
  7 15  1  0
M  END

> <chembl_id>
CHEMBL6992

> <chembl_pref_name>
None

$$$$

     RDKit          2D

 20 22  0  0  0  0  0  0  0  0999 V2000
    3.5292   -5.5125    0.0000 S   0  0  0  0  0  0  0  0  0  0  0  0
    6.5875   -7.2750    0.0000 N   0  0  0  0  0  0  0  0  0  0  0  0
    7.3500   -6.8292    0.0000 C   0  0  0  0  0  0  0  0  0  0  0  0
    4.2917   -5.9500    0.0000 C   0  0  0  0  0  0  0  0  0  0  0  0
    8.1167   -7.2667    0.0000 N   0  0  0  0  0  0  0  0  0  0  0  0
    6.5792   -5.5042    0.0000 N   0  0  0  0  0  0  0  0  0  0  0  0
    5.0542   -5.5042    0.0000 C   0  0  0  0  0  0  0  0  0  0  0  0
    5.8167   -5.9500    0.0000 C   0  0  0  0  0  0  0  0  0  0  0  0
    5.8167   -6.8292    0.0000 C   0  0  0  0  0  0  0  0  0  0  0  0
    7.3417   -5.9417    0.0000 C   0  0  0  0  0  0  0  0  0  0  0  0
    3.5250   -4.6292    0.0000 O   0  0  0  0  0  0  0  0  0  0  0  0
    2.7625   -5.9542    0.0000 O   0  0  0  0  0  0  0  0  0  0  0  0
    9.6417   -8.1417    0.0000 N   0  0  0  0  0  0  0  0  0  0  0  0
    4.2917   -6.8375    0.0000 C   0  0  0  0  0  0  0  0  0  0  0  0
    5.0542   -7.2792    0.0000 C   0  0  0  0  0  0  0  0  0  0  0  0
    2.7625   -5.0667    0.0000 C   0  0  0  0  0  0  0  0  0  0  0  0
    8.1167   -8.1500    0.0000 C   0  0  0  0  0  0  0  0  0  0  0  0
    8.8750   -6.8167    0.0000 C   0  0  0  0  0  0  0  0  0  0  0  0
    9.6417   -7.2625    0.0000 C   0  0  0  0  0  0  0  0  0  0  0  0
    8.8792   -8.5875    0.0000 C   0  0  0  0  0  0  0  0  0  0  0  0
  2  9  1  0
  3  2  2  0
  4  1  1  0
  5  3  1  0
  6  8  1  0
  7  4  1  0
  8  7  2  0
  9 15  2  0
 10  6  2  0
 11  1  2  0
 12  1  2  0
 13 19  1  0
 14  4  2  0
 15 14  1  0
 16  1  1  0
 17  5  1  0
 18  5  1  0
 19 18  1  0
 20 17  1  0
  9  8  1  0
 10  3  1  0
 13 20  1  0
M  END

> <chembl_id>
CHEMBL6606

> <chembl_pref_name>
None

$$$$

     RDKit          2D

 26 28  0  0  1  0  0  0  0  0999 V2000
    6.3625   -4.8042    0.0000 N   0  0  0  0  0  0  0  0  0  0  0  0
    5.1917   -4.8042    0.0000 C   0  0  0  0  0  0  0  0  0  0  0  0
    5.1917   -3.7000    0.0000 C   0  0  0  0  0  0  0  0  0  0  0  0
    6.3625   -3.7000    0.0000 C   0  0  0  0  0  0  0  0  0  0  0  0
    7.2542   -5.3292    0.0000 C   0  0  0  0  0  0  0  0  0  0  0  0
    4.3250   -3.7000    0.0000 N   0  0  0  0  0  0  0  0  0  0  0  0
    7.2542   -3.1667    0.0000 S   0  0  0  0  0  0  0  0  0  0  0  0
    3.4667   -3.1042    0.0000 C   0  0  0  0  0  0  0  0  0  0  0  0
    8.2000   -4.7917    0.0000 C   0  0  0  0  0  0  0  0  0  0  0  0
    7.2542   -6.3500    0.0000 C   0  0  0  0  0  0  0  0  0  0  0  0
    2.6417   -3.5917    0.0000 C   0  0  0  0  0  0  0  0  0  0  0  0
    8.2000   -3.7000    0.0000 C   0  0  0  0  0  0  0  0  0  0  0  0
    4.5750   -5.5500    0.0000 O   0  0  0  0  0  0  0  0  0  0  0  0
    3.4667   -2.0542    0.0000 O   0  0  0  0  0  0  0  0  0  0  0  0
    8.1500   -6.8792    0.0000 O   0  0  0  0  0  0  0  0  0  0  0  0
    2.6500   -4.6250    0.0000 C   0  0  0  0  0  0  0  0  0  0  0  0
    1.8000   -3.0792    0.0000 N   0  0  0  0  0  0  0  0  0  0  0  0
    6.4250   -6.8792    0.0000 O   0  0  0  0  0  0  0  0  0  0  0  0
    9.1042   -5.2542    0.0000 C   0  0  0  0  0  0  0  0  0  0  0  0
    3.5542   -5.1250    0.0000 C   0  0  0  0  0  0  0  0  0  0  0  0
    1.7625   -5.1292    0.0000 C   0  0  0  0  0  0  0  0  0  0  0  0
    1.7625   -6.1875    0.0000 C   0  0  0  0  0  0  0  0  0  0  0  0
    3.5542   -6.1792    0.0000 C   0  0  0  0  0  0  0  0  0  0  0  0
    2.6500   -6.7167    0.0000 C   0  0  0  0  0  0  0  0  0  0  0  0
    5.1917   -2.8417    0.0000 H   0  0  0  0  0  0  0  0  0  0  0  0
    6.3625   -2.9000    0.0000 H   0  0  0  0  0  0  0  0  0  0  0  0
  2  1  1  0
  3  4  1  0
  4  1  1  0
  5  1  1  0
  3  6  1  1
  7  4  1  0
  8  6  1  0
  9  5  2  0
 10  5  1  0
 11  8  1  0
 12  9  1  0
 13  2  2  0
 14  8  2  0
 15 10  2  0
 16 11  1  0
 17 11  1  0
 18 10  1  0
 19  9  1  0
 20 16  1  0
 21 16  2  0
 22 21  1  0
 23 20  2  0
 24 22  2  0
  3 25  1  6
  4 26  1  6
  3  2  1  0
 12  7  1  0
 24 23  1  0
M  END

> <chembl_id>
CHEMBL6634

> <chembl_pref_name>
None

$$$$

     RDKit          2D

 18 19  0  0  0  0  0  0  0  0999 V2000
   -4.7183   -3.7535    0.0000 C   0  0  0  0  0  0  0  0  0  0  0  0
   -4.7195   -4.5815    0.0000 N   0  0  0  0  0  0  0  0  0  0  0  0
   -4.0040   -4.9948    0.0000 C   0  0  0  0  0  0  0  0  0  0  0  0
   -3.2868   -4.5811    0.0000 N   0  0  0  0  0  0  0  0  0  0  0  0
   -3.2897   -3.7498    0.0000 C   0  0  0  0  0  0  0  0  0  0  0  0
   -4.0058   -3.3403    0.0000 C   0  0  0  0  0  0  0  0  0  0  0  0
   -2.5762   -3.3342    0.0000 N   0  0  0  0  0  0  0  0  0  0  0  0
   -1.8595   -3.7444    0.0000 C   0  0  0  0  0  0  0  0  0  0  0  0
   -4.0042   -5.8206    0.0000 N   0  0  0  0  0  0  0  0  0  0  0  0
   -1.8597   -4.5678    0.0000 C   0  0  0  0  0  0  0  0  0  0  0  0
   -1.1439   -4.9779    0.0000 C   0  0  0  0  0  0  0  0  0  0  0  0
   -0.4293   -4.5623    0.0000 C   0  0  0  0  0  0  0  0  0  0  0  0
   -0.4351   -3.7323    0.0000 C   0  0  0  0  0  0  0  0  0  0  0  0
   -1.1516   -3.3259    0.0000 C   0  0  0  0  0  0  0  0  0  0  0  0
    0.2879   -4.9715    0.0000 S   0  0  0  0  0  0  0  0  0  0  0  0
    0.2921   -5.7973    0.0000 N   0  0  0  0  0  0  0  0  0  0  0  0
    0.6964   -4.2539    0.0000 O   0  0  0  0  0  0  0  0  0  0  0  0
    1.0843   -5.1840    0.0000 O   0  0  0  0  0  0  0  0  0  0  0  0
  3  9  1  0
  4  5  1  0
  8 10  2  0
  2  3  1  0
 10 11  1  0
  5  6  2  0
 11 12  2  0
  6  1  1  0
 12 13  1  0
  1  2  2  0
 13 14  2  0
 14  8  1  0
  5  7  1  0
 12 15  1  0
  3  4  2  0
 15 16  1  0
  7  8  1  0
 15 17  2  0
 15 18  2  0
M  END

> <chembl_id>
CHEMBL6633

> <chembl_pref_name>
None

$$$$

     RDKit          2D

 25 28  0  0  1  0  0  0  0  0999 V2000
    3.8832   -2.9925    0.0000 O   0  0  0  0  0  0  0  0  0  0  0  0
    2.4863   -3.0226    0.0000 O   0  0  0  0  0  0  0  0  0  0  0  0
    4.2338   -2.5313    0.0000 O   0  0  0  0  0  0  0  0  0  0  0  0
    4.6094   -3.4528    0.0000 O   0  0  0  0  0  0  0  0  0  0  0  0
    0.9987   -2.8264    0.0000 O   0  0  0  0  0  0  0  0  0  0  0  0
    3.6447   -2.0416    0.0000 C   0  0  0  0  0  0  0  0  0  0  0  0
    2.9023   -1.5422    0.0000 C   0  0  0  0  0  0  0  0  0  0  0  0
    4.2053   -1.3462    0.0000 C   0  0  0  0  0  0  0  0  0  0  0  0
    3.3011   -2.7520    0.0000 C   0  0  0  0  0  0  0  0  0  0  0  0
    2.0697   -1.7748    0.0000 C   0  0  0  0  0  0  0  0  0  0  0  0
    4.0889   -0.4989    0.0000 C   0  0  0  0  0  0  0  0  0  0  0  0
    1.7811   -2.5650    0.0000 C   0  0  0  0  0  0  0  0  0  0  0  0
    5.0658   -2.7442    0.0000 C   0  0  0  0  0  0  0  0  0  0  0  0
    2.8062   -0.6873    0.0000 C   0  0  0  0  0  0  0  0  0  0  0  0
    5.0628   -1.3574    0.0000 C   0  0  0  0  0  0  0  0  0  0  0  0
    3.3697   -0.0678    0.0000 C   0  0  0  0  0  0  0  0  0  0  0  0
    5.5516   -2.0464    0.0000 C   0  0  0  0  0  0  0  0  0  0  0  0
    1.5094   -1.1693    0.0000 C   0  0  0  0  0  0  0  0  0  0  0  0
    4.7773   -0.0443    0.0000 C   0  0  0  0  0  0  0  0  0  0  0  0
    5.7513   -3.2033    0.0000 C   0  0  0  0  0  0  0  0  0  0  0  0
    0.3810   -2.2795    0.0000 C   0  0  0  0  0  0  0  0  0  0  0  0
   -0.4015   -2.5410    0.0000 C   0  0  0  0  0  0  0  0  0  0  0  0
    3.5263   -3.5456    0.0000 H   0  0  0  0  0  0  0  0  0  0  0  0
    2.0094   -0.9521    0.0000 H   0  0  0  0  0  0  0  0  0  0  0  0
    4.8404   -0.8393    0.0000 H   0  0  0  0  0  0  0  0  0  0  0  0
  1  4  1  0
  6  1  1  1
  9  2  1  0
  2 12  1  0
  3  9  1  0
  3 13  1  0
 13  4  1  0
 12  5  1  6
  5 21  1  0
  6  7  1  0
  6  8  1  0
  6  9  1  0
  7 10  1  0
  7 14  1  0
  8 11  1  0
  8 15  1  0
  9 23  1  6
 10 12  1  0
 10 18  1  0
 10 24  1  1
 11 16  1  0
 11 19  1  0
 11 25  1  6
 13 17  1  0
 13 20  1  6
 14 16  1  0
 15 17  1  0
 21 22  1  0
M  END

> <chembl_id>
CHEMBL6635

> <chembl_pref_name>
None

$$$$

     RDKit          2D

 18 20  0  0  0  0  0  0  0  0999 V2000
    4.1542   -1.7292    0.0000 C   0  0  0  0  0  0  0  0  0  0  0  0
    4.1542   -1.1292    0.0000 C   0  0  0  0  0  0  0  0  0  0  0  0
    4.6750   -2.0292    0.0000 C   0  0  0  0  0  0  0  0  0  0  0  0
    5.1917   -1.7292    0.0000 C   0  0  0  0  0  0  0  0  0  0  0  0
    5.1917   -1.1250    0.0000 C   0  0  0  0  0  0  0  0  0  0  0  0
    4.6750   -0.8250    0.0000 C   0  0  0  0  0  0  0  0  0  0  0  0
    3.6417   -2.0292    0.0000 O   0  0  0  0  0  0  0  0  0  0  0  0
    3.6417   -0.8292    0.0000 C   0  0  0  0  0  0  0  0  0  0  0  0
    3.1167   -1.7292    0.0000 C   0  0  0  0  0  0  0  0  0  0  0  0
    3.1167   -1.1250    0.0000 C   0  0  0  0  0  0  0  0  0  0  0  0
    5.7667   -1.9167    0.0000 O   0  0  0  0  0  0  0  0  0  0  0  0
    5.7667   -0.9375    0.0000 C   0  0  0  0  0  0  0  0  0  0  0  0
    6.1250   -1.4250    0.0000 C   0  0  0  0  0  0  0  0  0  0  0  0
    2.6000   -2.0292    0.0000 O   0  0  0  0  0  0  0  0  0  0  0  0
    4.6750   -2.6292    0.0000 O   0  0  0  0  0  0  0  0  0  0  0  0
    4.6667   -0.2167    0.0000 C   0  0  0  0  0  0  0  0  0  0  0  0
    5.1917    0.0750    0.0000 O   0  0  0  0  0  0  0  0  0  0  0  0
    4.1542   -2.9292    0.0000 C   0  0  0  0  0  0  0  0  0  0  0  0
  2  1  2  0
  3  1  1  0
  4  3  2  0
  5  4  1  0
  6  2  1  0
  7  1  1  0
  8  2  1  0
  9  7  1  0
 10  9  1  0
 11  4  1  0
 12  5  1  0
 13 11  1  0
 14  9  2  0
 15  3  1  0
 16  6  1  0
 17 16  1  0
 18 15  1  0
  6  5  2  0
  8 10  2  0
 13 12  2  0
M  END

> <chembl_id>
CHEMBL6577

> <chembl_pref_name>
None

$$$$

     RDKit          2D

 25 27  0  0  0  0  0  0  0  0999 V2000
    5.7542   -2.3417    0.0000 Cl  0  0  0  0  0  0  0  0  0  0  0  0
    2.9917   -3.4917    0.0000 C   0  0  0  0  0  0  0  0  0  0  0  0
    2.9917   -2.8917    0.0000 C   0  0  0  0  0  0  0  0  0  0  0  0
    3.5125   -2.5917    0.0000 C   0  0  0  0  0  0  0  0  0  0  0  0
    3.5125   -3.7917    0.0000 C   0  0  0  0  0  0  0  0  0  0  0  0
    4.0292   -3.4917    0.0000 C   0  0  0  0  0  0  0  0  0  0  0  0
    4.0292   -2.8917    0.0000 C   0  0  0  0  0  0  0  0  0  0  0  0
    2.4792   -3.7917    0.0000 O   0  0  0  0  0  0  0  0  0  0  0  0
    4.0250   -1.6917    0.0000 N   0  0  0  0  0  0  0  0  0  0  0  0
    2.4792   -2.5917    0.0000 C   0  0  0  0  0  0  0  0  0  0  0  0
    1.9542   -3.4917    0.0000 C   0  0  0  0  0  0  0  0  0  0  0  0
    3.5042   -1.9917    0.0000 C   0  0  0  0  0  0  0  0  0  0  0  0
    1.9542   -2.8917    0.0000 C   0  0  0  0  0  0  0  0  0  0  0  0
    4.6042   -3.6792    0.0000 O   0  0  0  0  0  0  0  0  0  0  0  0
    5.0625   -1.0917    0.0000 N   0  0  0  0  0  0  0  0  0  0  0  0
    4.6042   -2.7042    0.0000 C   0  0  0  0  0  0  0  0  0  0  0  0
    4.9625   -3.1917    0.0000 C   0  0  0  0  0  0  0  0  0  0  0  0
    1.4375   -3.7917    0.0000 O   0  0  0  0  0  0  0  0  0  0  0  0
    4.0250   -1.0917    0.0000 C   0  0  0  0  0  0  0  0  0  0  0  0
    4.5417   -1.9917    0.0000 C   0  0  0  0  0  0  0  0  0  0  0  0
    3.5167   -4.3917    0.0000 O   0  0  0  0  0  0  0  0  0  0  0  0
    5.0625   -1.6917    0.0000 C   0  0  0  0  0  0  0  0  0  0  0  0
    4.5417   -0.7917    0.0000 C   0  0  0  0  0  0  0  0  0  0  0  0
    5.4792   -0.6667    0.0000 C   0  0  0  0  0  0  0  0  0  0  0  0
    2.9917   -4.6917    0.0000 C   0  0  0  0  0  0  0  0  0  0  0  0
  3  2  2  0
  4  3  1  0
  5  2  1  0
  6  5  2  0
  7  6  1  0
  8  2  1  0
  9 12  1  0
 10  3  1  0
 11  8  1  0
 12  4  1  0
 13 11  1  0
 14  6  1  0
 15 22  1  0
 16  7  1  0
 17 14  1  0
 18 11  2  0
 19  9  1  0
 20  9  1  0
 21  5  1  0
 22 20  1  0
 23 19  1  0
 24 15  1  0
 25 21  1  0
 10 13  2  0
  4  7  2  0
 17 16  2  0
 23 15  1  0
M  END

> <chembl_id>
CHEMBL6589

> <chembl_pref_name>
None

$$$$

     RDKit          2D

 12 13  0  0  0  0  0  0  0  0999 V2000
   -3.0347    4.0179    0.0000 C   0  0  0  0  0  0  0  0  0  0  0  0
   -3.4472    4.7323    0.0000 C   0  0  0  0  0  0  0  0  0  0  0  0
   -4.2722    4.7323    0.0000 C   0  0  0  0  0  0  0  0  0  0  0  0
   -4.6847    4.0179    0.0000 C   0  0  0  0  0  0  0  0  0  0  0  0
   -4.2722    3.3034    0.0000 C   0  0  0  0  0  0  0  0  0  0  0  0
   -3.4472    3.3034    0.0000 C   0  0  0  0  0  0  0  0  0  0  0  0
   -2.3202    4.4304    0.0000 C   0  0  0  0  0  0  0  0  0  0  0  0
   -2.2378    3.8043    0.0000 C   0  0  0  0  0  0  0  0  0  0  0  0
   -3.6607    2.5065    0.0000 C   0  0  0  0  0  0  0  0  0  0  0  0
   -2.7327    2.8909    0.0000 N   0  0  0  0  0  0  0  0  0  0  0  0
   -2.7327    2.0659    0.0000 C   0  0  0  0  0  0  0  0  0  0  0  0
   -4.0587    4.1003    0.0000 C   0  0  0  0  0  0  0  0  0  0  0  0
  1  2  1  0
  2  3  1  0
  3  4  1  0
  4  5  1  0
  5  6  1  0
  6  1  1  0
  1  7  1  0
  1  8  1  0
  6  9  1  0
  6 10  1  0
 10 11  1  0
  5 12  1  0
  2 12  1  0
M  END

> <chembl_id>
CHEMBL267936

> <chembl_pref_name>
MECAMYLAMINE

$$$$

     RDKit          2D

 11 12  0  0  0  0  0  0  0  0999 V2000
    4.7042   -4.9292    0.0000 C   0  0  0  0  0  0  0  0  0  0  0  0
    5.0417   -4.2417    0.0000 C   0  0  0  0  0  0  0  0  0  0  0  0
    4.1000   -4.6125    0.0000 C   0  0  0  0  0  0  0  0  0  0  0  0
    4.4000   -3.8542    0.0000 C   0  0  0  0  0  0  0  0  0  0  0  0
    4.2250   -3.1667    0.0000 C   0  0  0  0  0  0  0  0  0  0  0  0
    3.4000   -4.8667    0.0000 C   0  0  0  0  0  0  0  0  0  0  0  0
    3.7042   -4.2292    0.0000 C   0  0  0  0  0  0  0  0  0  0  0  0
    5.7042   -4.6250    0.0000 N   0  0  0  0  0  0  0  0  0  0  0  0
    5.4167   -5.3417    0.0000 C   0  0  0  0  0  0  0  0  0  0  0  0
    4.7000   -5.7542    0.0000 C   0  0  0  0  0  0  0  0  0  0  0  0
    6.3667   -4.2417    0.0000 C   0  0  0  0  0  0  0  0  0  0  0  0
  2  1  1  0
  3  1  1  0
  4  2  1  0
  5  3  1  0
  6  3  1  0
  7  6  1  0
  8  2  1  0
  9  1  1  0
 10  1  1  0
 11  8  1  0
  5  4  1  0
  7  4  1  0
M  END

> <chembl_id>
CHEMBL6491

> <chembl_pref_name>
None

$$$$

     RDKit          2D

 26 28  0  0  0  0  0  0  0  0999 V2000
    3.6875   -4.0917    0.0000 S   0  0  0  0  0  0  0  0  0  0  0  0
    4.3917   -4.5042    0.0000 N   0  0  0  0  0  0  0  0  0  0  0  0
    3.6875   -3.2667    0.0000 C   0  0  0  0  0  0  0  0  0  0  0  0
    2.9667   -2.8542    0.0000 C   0  0  0  0  0  0  0  0  0  0  0  0
    2.9667   -2.0250    0.0000 C   0  0  0  0  0  0  0  0  0  0  0  0
    5.1125   -4.0792    0.0000 C   0  0  0  0  0  0  0  0  0  0  0  0
    2.2375   -1.6042    0.0000 C   0  0  0  0  0  0  0  0  0  0  0  0
    5.1042   -3.2542    0.0000 N   0  0  0  0  0  0  0  0  0  0  0  0
    5.8167   -2.8375    0.0000 N   0  0  0  0  0  0  0  0  0  0  0  0
    2.8542   -4.0792    0.0000 O   0  0  0  0  0  0  0  0  0  0  0  0
    3.6750   -4.9250    0.0000 O   0  0  0  0  0  0  0  0  0  0  0  0
    2.2375   -0.7792    0.0000 N   0  0  0  0  0  0  0  0  0  0  0  0
    6.5500   -3.2417    0.0000 C   0  0  0  0  0  0  0  0  0  0  0  0
    5.8375   -4.5000    0.0000 C   0  0  0  0  0  0  0  0  0  0  0  0
    6.5500   -4.0792    0.0000 C   0  0  0  0  0  0  0  0  0  0  0  0
    7.2542   -2.8292    0.0000 O   0  0  0  0  0  0  0  0  0  0  0  0
    4.4042   -2.8500    0.0000 C   0  0  0  0  0  0  0  0  0  0  0  0
    2.2375   -3.2667    0.0000 C   0  0  0  0  0  0  0  0  0  0  0  0
    3.6750   -1.6042    0.0000 C   0  0  0  0  0  0  0  0  0  0  0  0
    1.5292   -2.0250    0.0000 C   0  0  0  0  0  0  0  0  0  0  0  0
    4.4042   -2.0167    0.0000 C   0  0  0  0  0  0  0  0  0  0  0  0
    1.5292   -2.8542    0.0000 C   0  0  0  0  0  0  0  0  0  0  0  0
    1.5250   -0.3625    0.0000 C   0  0  0  0  0  0  0  0  0  0  0  0
    2.9667   -0.3542    0.0000 C   0  0  0  0  0  0  0  0  0  0  0  0
    7.9875   -3.2375    0.0000 C   0  0  0  0  0  0  0  0  0  0  0  0
    8.6917   -2.8167    0.0000 C   0  0  0  0  0  0  0  0  0  0  0  0
  2  1  1  0
  3  1  1  0
  4  3  1  0
  5  4  2  0
  6  2  1  0
  7  5  1  0
  8  6  2  0
  9  8  1  0
 10  1  2  0
 11  1  2  0
 12  7  1  0
 13 15  1  0
 14  6  1  0
 15 14  2  0
 16 13  1  0
 17  3  2  0
 18  4  1  0
 19 21  2  0
 20 22  1  0
 21 17  1  0
 22 18  2  0
 23 12  1  0
 24 12  1  0
 25 16  1  0
 26 25  1  0
 19  5  1  0
 20  7  2  0
 13  9  2  0
M  END

> <chembl_id>
CHEMBL269237

> <chembl_pref_name>
None

$$$$

     RDKit          2D

 25 27  0  0  0  0  0  0  0  0999 V2000
    4.0417   -4.0917    0.0000 S   0  0  0  0  0  0  0  0  0  0  0  0
    4.7667   -4.5042    0.0000 N   0  0  0  0  0  0  0  0  0  0  0  0
    4.0417   -3.2667    0.0000 C   0  0  0  0  0  0  0  0  0  0  0  0
    3.3292   -2.8542    0.0000 C   0  0  0  0  0  0  0  0  0  0  0  0
    3.3292   -2.0250    0.0000 C   0  0  0  0  0  0  0  0  0  0  0  0
    5.4792   -4.0792    0.0000 C   0  0  0  0  0  0  0  0  0  0  0  0
    2.6042   -1.6042    0.0000 C   0  0  0  0  0  0  0  0  0  0  0  0
    5.4625   -3.2542    0.0000 N   0  0  0  0  0  0  0  0  0  0  0  0
    6.1917   -2.8375    0.0000 N   0  0  0  0  0  0  0  0  0  0  0  0
    3.2125   -4.0792    0.0000 O   0  0  0  0  0  0  0  0  0  0  0  0
    4.0417   -4.9250    0.0000 O   0  0  0  0  0  0  0  0  0  0  0  0
    2.6042   -0.7792    0.0000 N   0  0  0  0  0  0  0  0  0  0  0  0
    6.9125   -3.2417    0.0000 C   0  0  0  0  0  0  0  0  0  0  0  0
    6.2000   -4.5000    0.0000 C   0  0  0  0  0  0  0  0  0  0  0  0
    6.9125   -4.0792    0.0000 C   0  0  0  0  0  0  0  0  0  0  0  0
    7.6250   -2.8292    0.0000 O   0  0  0  0  0  0  0  0  0  0  0  0
    4.7667   -2.8500    0.0000 C   0  0  0  0  0  0  0  0  0  0  0  0
    2.6042   -3.2667    0.0000 C   0  0  0  0  0  0  0  0  0  0  0  0
    4.0417   -1.6042    0.0000 C   0  0  0  0  0  0  0  0  0  0  0  0
    1.8917   -2.0250    0.0000 C   0  0  0  0  0  0  0  0  0  0  0  0
    4.7667   -2.0167    0.0000 C   0  0  0  0  0  0  0  0  0  0  0  0
    1.8917   -2.8542    0.0000 C   0  0  0  0  0  0  0  0  0  0  0  0
    1.8792   -0.3625    0.0000 C   0  0  0  0  0  0  0  0  0  0  0  0
    3.3292   -0.3542    0.0000 C   0  0  0  0  0  0  0  0  0  0  0  0
    8.3417   -3.2375    0.0000 C   0  0  0  0  0  0  0  0  0  0  0  0
  2  1  1  0
  3  1  1  0
  4  3  1  0
  5  4  2  0
  6  2  1  0
  7  5  1  0
  8  6  2  0
  9  8  1  0
 10  1  2  0
 11  1  2  0
 12  7  1  0
 13 15  1  0
 14  6  1  0
 15 14  2  0
 16 13  1  0
 17  3  2  0
 18  4  1  0
 19 21  2  0
 20 22  1  0
 21 17  1  0
 22 18  2  0
 23 12  1  0
 24 12  1  0
 25 16  1  0
 19  5  1  0
 20  7  2  0
 13  9  2  0
M  END

> <chembl_id>
CHEMBL6624

> <chembl_pref_name>
None

$$$$

     RDKit          2D

 16 16  0  0  0  0  0  0  0  0999 V2000
    0.4973    0.2226    0.0000 C   0  0  0  0  0  0  0  0  0  0  0  0
    0.4973   -0.6024    0.0000 C   0  0  0  0  0  0  0  0  0  0  0  0
   -0.2172   -1.0149    0.0000 C   0  0  0  0  0  0  0  0  0  0  0  0
   -0.9317   -0.6024    0.0000 C   0  0  0  0  0  0  0  0  0  0  0  0
   -0.9317    0.2226    0.0000 C   0  0  0  0  0  0  0  0  0  0  0  0
   -0.2172    0.6351    0.0000 C   0  0  0  0  0  0  0  0  0  0  0  0
    1.2118   -1.0149    0.0000 S   0  0  0  0  0  0  0  0  0  0  0  0
    1.9262   -1.4274    0.0000 N   0  0  0  0  0  0  0  0  0  0  0  0
    0.7993   -1.7294    0.0000 O   0  0  0  0  0  0  0  0  0  0  0  0
    1.6243   -0.3005    0.0000 O   0  0  0  0  0  0  0  0  0  0  0  0
   -0.2172    1.4601    0.0000 S   0  0  0  0  0  0  0  0  0  0  0  0
   -0.2172    2.2851    0.0000 N   0  0  0  0  0  0  0  0  0  0  0  0
   -1.0422    1.4601    0.0000 O   0  0  0  0  0  0  0  0  0  0  0  0
    0.6078    1.4601    0.0000 O   0  0  0  0  0  0  0  0  0  0  0  0
   -0.2172   -1.8399    0.0000 N   0  0  0  0  0  0  0  0  0  0  0  0
   -1.6461    0.6351    0.0000 Cl  0  0  0  0  0  0  0  0  0  0  0  0
 10  7  2  0
  9  7  2  0
  8  7  1  0
  2  7  1  0
  3 15  1  0
  2  3  2  0
  2  1  1  0
  4  3  1  0
  1  6  2  0
  5  4  2  0
  6  5  1  0
  6 11  1  0
  5 16  1  0
 12 11  1  0
 14 11  2  0
 13 11  2  0
M  END

> <chembl_id>
CHEMBL266240

> <chembl_pref_name>
None

$$$$

     RDKit          2D

 14 15  0  0  0  0  0  0  0  0999 V2000
    2.7514   -0.6933    0.0000 O   0  0  0  0  0  0  0  0  0  0  0  0
    2.0369   -0.2808    0.0000 C   0  0  0  0  0  0  0  0  0  0  0  0
    1.3225   -0.6933    0.0000 C   0  0  0  0  0  0  0  0  0  0  0  0
    0.6080   -0.2808    0.0000 C   0  0  0  0  0  0  0  0  0  0  0  0
   -0.1766   -0.5358    0.0000 S   0  0  0  0  0  0  0  0  0  0  0  0
   -0.6615    0.1317    0.0000 C   0  0  0  0  0  0  0  0  0  0  0  0
   -1.4865    0.1317    0.0000 S   0  0  0  0  0  0  0  0  0  0  0  0
   -2.3115    0.1317    0.0000 N   0  0  0  0  0  0  0  0  0  0  0  0
   -1.4865    0.9567    0.0000 O   0  0  0  0  0  0  0  0  0  0  0  0
   -1.4865   -0.6933    0.0000 O   0  0  0  0  0  0  0  0  0  0  0  0
   -0.1766    0.7991    0.0000 N   0  0  0  0  0  0  0  0  0  0  0  0
    0.6080    0.5442    0.0000 C   0  0  0  0  0  0  0  0  0  0  0  0
    1.3225    0.9567    0.0000 C   0  0  0  0  0  0  0  0  0  0  0  0
    2.0369    0.5442    0.0000 C   0  0  0  0  0  0  0  0  0  0  0  0
  2  1  1  0
  2  3  2  0
  2 14  1  0
  4  3  1  0
  4  5  1  0
 12  4  2  0
  6  5  1  0
  6  7  1  0
  6 11  2  0
  8  7  1  0
  9  7  2  0
 10  7  2  0
 12 11  1  0
 13 12  1  0
 14 13  2  0
M  END

> <chembl_id>
CHEMBL6685

> <chembl_pref_name>
None

$$$$

     RDKit          2D

 17 19  0  0  0  0  0  0  0  0999 V2000
    6.5875   -7.2750    0.0000 N   0  0  0  0  0  0  0  0  0  0  0  0
    7.3500   -6.8292    0.0000 C   0  0  0  0  0  0  0  0  0  0  0  0
    8.1167   -7.2667    0.0000 N   0  0  0  0  0  0  0  0  0  0  0  0
    6.5792   -5.5042    0.0000 N   0  0  0  0  0  0  0  0  0  0  0  0
    5.8167   -5.9500    0.0000 C   0  0  0  0  0  0  0  0  0  0  0  0
    5.8167   -6.8292    0.0000 C   0  0  0  0  0  0  0  0  0  0  0  0
    5.0542   -5.5042    0.0000 C   0  0  0  0  0  0  0  0  0  0  0  0
    7.3417   -5.9417    0.0000 C   0  0  0  0  0  0  0  0  0  0  0  0
    9.6417   -8.1417    0.0000 N   0  0  0  0  0  0  0  0  0  0  0  0
    5.0542   -7.2792    0.0000 C   0  0  0  0  0  0  0  0  0  0  0  0
    4.2917   -5.9500    0.0000 C   0  0  0  0  0  0  0  0  0  0  0  0
    4.2917   -6.8375    0.0000 C   0  0  0  0  0  0  0  0  0  0  0  0
    8.1167   -8.1500    0.0000 C   0  0  0  0  0  0  0  0  0  0  0  0
    8.8750   -6.8167    0.0000 C   0  0  0  0  0  0  0  0  0  0  0  0
    3.5292   -5.5125    0.0000 O   0  0  0  0  0  0  0  0  0  0  0  0
    8.8792   -8.5875    0.0000 C   0  0  0  0  0  0  0  0  0  0  0  0
    9.6417   -7.2625    0.0000 C   0  0  0  0  0  0  0  0  0  0  0  0
  2  1  2  0
  3  2  1  0
  4  5  1  0
  5  6  1  0
  6  1  1  0
  7  5  2  0
  8  2  1  0
  9 17  1  0
 10  6  2  0
 11 12  2  0
 12 10  1  0
 13  3  1  0
 14  3  1  0
 15 11  1  0
 16 13  1  0
 17 14  1  0
  4  8  2  0
 11  7  1  0
  9 16  1  0
M  END

> <chembl_id>
CHEMBL6698

> <chembl_pref_name>
None

$$$$

     RDKit          2D

 12 13  0  0  0  0  0  0  0  0999 V2000
    4.4000   -3.8542    0.0000 C   0  0  0  0  0  0  0  0  0  0  0  0
    4.2250   -3.1667    0.0000 C   0  0  0  0  0  0  0  0  0  0  0  0
    4.1000   -4.6125    0.0000 C   0  0  0  0  0  0  0  0  0  0  0  0
    5.0417   -4.2417    0.0000 C   0  0  0  0  0  0  0  0  0  0  0  0
    3.7042   -4.2292    0.0000 C   0  0  0  0  0  0  0  0  0  0  0  0
    4.7042   -4.9292    0.0000 C   0  0  0  0  0  0  0  0  0  0  0  0
    3.4000   -4.8667    0.0000 C   0  0  0  0  0  0  0  0  0  0  0  0
    5.6792   -3.6792    0.0000 N   0  0  0  0  0  0  0  0  0  0  0  0
    4.9792   -3.2667    0.0000 C   0  0  0  0  0  0  0  0  0  0  0  0
    4.8042   -2.5792    0.0000 C   0  0  0  0  0  0  0  0  0  0  0  0
    3.4250   -2.9542    0.0000 C   0  0  0  0  0  0  0  0  0  0  0  0
    6.4792   -3.9000    0.0000 C   0  0  0  0  0  0  0  0  0  0  0  0
  2  1  1  0
  3  2  1  0
  4  1  1  0
  5  1  1  0
  6  4  1  0
  7  5  1  0
  8  4  1  0
  9  1  1  0
 10  2  1  0
 11  2  1  0
 12  8  1  0
  3  7  1  0
  6  3  1  0
M  END

> <chembl_id>
CHEMBL7030

> <chembl_pref_name>
None

$$$$

     RDKit          2D

  9 10  0  0  0  0  0  0  0  0999 V2000
    4.4000   -3.8542    0.0000 C   0  0  0  0  0  0  0  0  0  0  0  0
    5.0417   -4.2417    0.0000 C   0  0  0  0  0  0  0  0  0  0  0  0
    4.2250   -3.1667    0.0000 C   0  0  0  0  0  0  0  0  0  0  0  0
    4.7042   -4.9292    0.0000 C   0  0  0  0  0  0  0  0  0  0  0  0
    4.1000   -4.6125    0.0000 C   0  0  0  0  0  0  0  0  0  0  0  0
    3.7042   -4.2292    0.0000 C   0  0  0  0  0  0  0  0  0  0  0  0
    5.4292   -3.5750    0.0000 N   0  0  0  0  0  0  0  0  0  0  0  0
    3.4000   -4.8667    0.0000 C   0  0  0  0  0  0  0  0  0  0  0  0
    6.1917   -3.5667    0.0000 C   0  0  0  0  0  0  0  0  0  0  0  0
  2  1  1  0
  3  1  1  0
  4  2  1  0
  5  3  1  0
  6  1  1  0
  7  2  1  0
  8  6  1  0
  9  7  1  0
  5  8  1  0
  4  5  1  0
M  END

> <chembl_id>
CHEMBL7041

> <chembl_pref_name>
None

$$$$

     RDKit          2D

 71 71  0  0  1  0  0  0  0  0999 V2000
    9.4500   -4.5625    0.0000 N   0  0  0  0  0  0  0  0  0  0  0  0
    8.7375   -4.1417    0.0000 C   0  0  0  0  0  0  0  0  0  0  0  0
   10.3917   -3.4250    0.0000 C   0  0  0  0  0  0  0  0  0  0  0  0
   -0.5750   -4.4750    0.0000 C   0  0  0  0  0  0  0  0  0  0  0  0
    0.1500   -4.0667    0.0000 C   0  0  0  0  0  0  0  0  0  0  0  0
   12.1417   -2.1250    0.0000 C   0  0  0  0  0  0  0  0  0  0  0  0
    6.5875   -4.5375    0.0000 C   0  0  0  0  0  0  0  0  0  0  0  0
   -1.2833   -4.0542    0.0000 N   0  0  0  0  0  0  0  0  0  0  0  0
    7.3042   -4.1292    0.0000 N   0  0  0  0  0  0  0  0  0  0  0  0
    5.1542   -4.5250    0.0000 N   0  0  0  0  0  0  0  0  0  0  0  0
    8.0167   -4.5500    0.0000 C   0  0  0  0  0  0  0  0  0  0  0  0
   13.9667   -0.9250    0.0000 C   0  0  0  0  0  0  0  0  0  0  0  0
   10.2042   -4.2292    0.0000 C   0  0  0  0  0  0  0  0  0  0  0  0
   -2.0083   -4.4542    0.0000 C   0  0  0  0  0  0  0  0  0  0  0  0
    4.4417   -4.1042    0.0000 C   0  0  0  0  0  0  0  0  0  0  0  0
   11.1750   -3.1792    0.0000 N   0  0  0  0  0  0  0  0  0  0  0  0
    2.2917   -4.5000    0.0000 C   0  0  0  0  0  0  0  0  0  0  0  0
    0.8542   -4.4792    0.0000 N   0  0  0  0  0  0  0  0  0  0  0  0
    3.0042   -4.0917    0.0000 N   0  0  0  0  0  0  0  0  0  0  0  0
    5.8750   -4.1167    0.0000 C   0  0  0  0  0  0  0  0  0  0  0  0
    3.7250   -4.5042    0.0000 C   0  0  0  0  0  0  0  0  0  0  0  0
   13.4625   -1.5792    0.0000 C   0  0  0  0  0  0  0  0  0  0  0  0
   11.3542   -2.3750    0.0000 N   0  0  0  0  0  0  0  0  0  0  0  0
   12.6417   -1.4667    0.0000 O   0  0  0  0  0  0  0  0  0  0  0  0
   -2.7208   -4.0417    0.0000 C   0  0  0  0  0  0  0  0  0  0  0  0
    3.7167   -5.3375    0.0000 C   0  0  0  0  0  0  0  0  0  0  0  0
   -2.7125   -3.2167    0.0000 C   0  0  0  0  0  0  0  0  0  0  0  0
   -3.4375   -4.4417    0.0000 N   0  0  0  0  0  0  0  0  0  0  0  0
    1.5750   -4.0792    0.0000 C   0  0  0  0  0  0  0  0  0  0  0  0
    4.4292   -5.7542    0.0000 C   0  0  0  0  0  0  0  0  0  0  0  0
   -1.9958   -2.8042    0.0000 C   0  0  0  0  0  0  0  0  0  0  0  0
   -3.4458   -5.2750    0.0000 C   0  0  0  0  0  0  0  0  0  0  0  0
    8.7417   -3.3167    0.0000 O   0  0  0  0  0  0  0  0  0  0  0  0
    9.7792   -2.8667    0.0000 O   0  0  0  0  0  0  0  0  0  0  0  0
    2.3125   -2.0167    0.0000 C   0  0  0  0  0  0  0  0  0  0  0  0
   12.4542   -2.8792    0.0000 O   0  0  0  0  0  0  0  0  0  0  0  0
    0.1542   -3.2375    0.0000 O   0  0  0  0  0  0  0  0  0  0  0  0
    6.5792   -5.3625    0.0000 O   0  0  0  0  0  0  0  0  0  0  0  0
   -2.0125   -5.2875    0.0000 O   0  0  0  0  0  0  0  0  0  0  0  0
    4.4500   -3.2792    0.0000 O   0  0  0  0  0  0  0  0  0  0  0  0
    2.2792   -5.3250    0.0000 O   0  0  0  0  0  0  0  0  0  0  0  0
   -0.5833   -5.3000    0.0000 C   0  0  0  0  0  0  0  0  0  0  0  0
   -1.9875   -1.9792    0.0000 O   0  0  0  0  0  0  0  0  0  0  0  0
    4.4167   -6.5875    0.0000 O   0  0  0  0  0  0  0  0  0  0  0  0
   -4.1625   -5.6792    0.0000 O   0  0  0  0  0  0  0  0  0  0  0  0
    3.0292   -1.6125    0.0000 O   0  0  0  0  0  0  0  0  0  0  0  0
   14.4625   -1.5792    0.0000 Cl  0  0  0  0  0  0  0  0  0  0  0  0
   14.7792   -1.0292    0.0000 Cl  0  0  0  0  0  0  0  0  0  0  0  0
   13.6500   -0.1542    0.0000 Cl  0  0  0  0  0  0  0  0  0  0  0  0
    1.5875   -3.2542    0.0000 C   0  0  0  0  0  0  0  0  0  0  0  0
    8.0125   -5.3792    0.0000 C   0  0  0  0  0  0  0  0  0  0  0  0
    9.5292   -5.3792    0.0000 C   0  0  0  0  0  0  0  0  0  0  0  0
    5.8792   -3.2917    0.0000 C   0  0  0  0  0  0  0  0  0  0  0  0
    2.3042   -2.8417    0.0000 C   0  0  0  0  0  0  0  0  0  0  0  0
    5.1500   -5.3542    0.0000 O   0  0  0  0  0  0  0  0  0  0  0  0
   -1.2833   -3.2250    0.0000 O   0  0  0  0  0  0  0  0  0  0  0  0
    1.6000   -1.6000    0.0000 O   0  0  0  0  0  0  0  0  0  0  0  0
   10.7542   -4.8542    0.0000 C   0  0  0  0  0  0  0  0  0  0  0  0
    0.1292   -5.7167    0.0000 O   0  0  0  0  0  0  0  0  0  0  0  0
   10.7417   -1.8167    0.0000 C   0  0  0  0  0  0  0  0  0  0  0  0
   13.0500   -2.1417    0.0000 C   0  0  0  0  0  0  0  0  0  0  0  0
   13.9292   -2.1042    0.0000 C   0  0  0  0  0  0  0  0  0  0  0  0
   10.3292   -5.5667    0.0000 C   0  0  0  0  0  0  0  0  0  0  0  0
   -2.7333   -5.6917    0.0000 C   0  0  0  0  0  0  0  0  0  0  0  0
   -1.3083   -5.7042    0.0000 C   0  0  0  0  0  0  0  0  0  0  0  0
    7.2917   -5.7792    0.0000 C   0  0  0  0  0  0  0  0  0  0  0  0
    8.7250   -5.7917    0.0000 C   0  0  0  0  0  0  0  0  0  0  0  0
    6.6042   -2.8792    0.0000 C   0  0  0  0  0  0  0  0  0  0  0  0
    5.1667   -2.8667    0.0000 C   0  0  0  0  0  0  0  0  0  0  0  0
   10.9250   -1.0042    0.0000 C   0  0  0  0  0  0  0  0  0  0  0  0
   10.3167   -0.4542    0.0000 C   0  0  0  0  0  0  0  0  0  0  0  0
  2  1  1  0
 13  3  1  1
  4  5  1  0
  5 18  1  0
  6 23  1  0
  7  9  1  0
  4  8  1  6
 11  9  1  6
 20 10  1  1
 11  2  1  0
 12 22  1  0
 13  1  1  0
 14  8  1  0
 15 10  1  0
 16  3  1  0
 17 19  1  0
 29 18  1  1
 21 19  1  6
 20  7  1  0
 21 15  1  0
 22 24  1  0
 23 16  1  0
 24  6  1  0
 25 14  1  0
 21 26  1  0
 25 27  1  1
 28 25  1  0
 29 17  1  0
 30 26  1  0
 31 27  1  0
 32 28  1  0
 33  2  2  0
 34  3  2  0
 35 54  1  0
 36  6  2  0
 37  5  2  0
 38  7  2  0
 39 14  2  0
 40 15  2  0
 41 17  2  0
  4 42  1  0
 43 31  2  0
 44 30  2  0
 45 32  2  0
 46 35  2  0
 47 12  1  0
 48 12  1  0
 49 12  1  0
 29 50  1  0
 11 51  1  0
 52  1  1  0
 20 53  1  0
 54 50  1  0
 55 30  1  0
 56 31  1  0
 57 35  1  0
 13 58  1  0
 42 59  1  6
 60 23  1  0
 61 22  1  0
 62 22  1  0
 63 52  1  0
 64 32  1  0
 65 42  1  0
 66 51  1  0
 67 51  1  0
 68 53  1  0
 69 53  1  0
 70 60  1  0
 71 70  1  0
 58 63  1  0
M  END

> <chembl_id>
CHEMBL384532

> <chembl_pref_name>
None

$$$$

     RDKit          2D

 11  9  0  0  0  0  0  0  0  0999 V2000
   -4.6569  -14.1156    0.0000 Cl  0  0  0  0  0  0  0  0  0  0  0  0
   -2.9038  -13.9854    0.0000 N   0  0  0  0  0  0  0  0  0  0  0  0
   -3.6183  -14.3979    0.0000 C   0  0  0  0  0  0  0  0  0  0  0  0
   -3.3163  -13.2709    0.0000 C   0  0  0  0  0  0  0  0  0  0  0  0
   -2.4913  -14.6999    0.0000 C   0  0  0  0  0  0  0  0  0  0  0  0
   -2.1893  -13.5729    0.0000 C   0  0  0  0  0  0  0  0  0  0  0  0
   -1.4748  -13.9854    0.0000 C   0  0  0  0  0  0  0  0  0  0  0  0
   -0.7604  -13.5729    0.0000 O   0  0  0  0  0  0  0  0  0  0  0  0
   -0.0459  -13.9854    0.0000 C   0  0  0  0  0  0  0  0  0  0  0  0
    0.6686  -13.5729    0.0000 N   0  0  0  0  0  0  0  0  0  0  0  0
   -0.0459  -14.8104    0.0000 O   0  0  0  0  0  0  0  0  0  0  0  0
  2  5  1  0
  6  7  1  0
  7  8  1  0
  2  6  1  0
  8  9  1  0
  9 10  1  0
  2  3  1  0
  9 11  2  0
  2  4  1  0
M  CHG  2   1  -1   2   1
M  END

> <chembl_id>
CHEMBL14

> <chembl_pref_name>
CARBACHOL

$$$$

     RDKit          2D

 10 10  0  0  0  0  0  0  0  0999 V2000
    9.6917   -2.0292    0.0000 C   0  0  0  0  0  0  0  0  0  0  0  0
   10.2042   -1.7250    0.0000 C   0  0  0  0  0  0  0  0  0  0  0  0
    9.6917   -2.6292    0.0000 C   0  0  0  0  0  0  0  0  0  0  0  0
    8.6542   -2.0292    0.0000 N   0  0  0  0  0  0  0  0  0  0  0  0
   10.2042   -1.1250    0.0000 O   0  0  0  0  0  0  0  0  0  0  0  0
    9.1667   -1.7292    0.0000 C   0  0  0  0  0  0  0  0  0  0  0  0
   10.7292   -2.0250    0.0000 O   0  0  0  0  0  0  0  0  0  0  0  0
    8.6542   -2.6292    0.0000 C   0  0  0  0  0  0  0  0  0  0  0  0
    9.1667   -2.9292    0.0000 C   0  0  0  0  0  0  0  0  0  0  0  0
   10.7292   -2.6250    0.0000 C   0  0  0  0  0  0  0  0  0  0  0  0
  2  1  1  0
  3  1  2  0
  4  6  1  0
  5  2  2  0
  6  1  1  0
  7  2  1  0
  8  4  1  0
  9  3  1  0
 10  7  1  0
  8  9  1  0
M  END

> <chembl_id>
CHEMBL268808

> <chembl_pref_name>
NORARECOLINE

$$$$

     RDKit          2D

 28 28  0  0  1  0  0  0  0  0999 V2000
   -2.1333   -0.2625    0.0000 C   0  0  0  0  0  0  0  0  0  0  0  0
   -1.5208   -1.0167    0.0000 C   0  0  0  0  0  0  0  0  0  0  0  0
   -2.4583   -0.7625    0.0000 C   0  0  0  0  0  0  0  0  0  0  0  0
   -1.5500   -0.4167    0.0000 C   0  0  0  0  0  0  0  0  0  0  0  0
   -2.0833   -1.2292    0.0000 C   0  0  0  0  0  0  0  0  0  0  0  0
   -1.0208   -1.3542    0.0000 C   0  0  0  0  0  0  0  0  0  0  0  0
    2.1250   -0.2875    0.0000 C   0  0  0  0  0  0  0  0  0  0  0  0
   -2.3458    0.3000    0.0000 O   0  0  0  0  0  0  0  0  0  0  0  0
   -0.4833   -1.0792    0.0000 C   0  0  0  0  0  0  0  0  0  0  0  0
    2.1292   -0.8875    0.0000 O   0  0  0  0  0  0  0  0  0  0  0  0
   -0.0500    0.1083    0.0000 C   0  0  0  0  0  0  0  0  0  0  0  0
    0.5417    0.1083    0.0000 C   0  0  0  0  0  0  0  0  0  0  0  0
    0.5542   -1.1375    0.0000 C   0  0  0  0  0  0  0  0  0  0  0  0
   -2.2375   -1.8167    0.0000 O   0  0  0  0  0  0  0  0  0  0  0  0
    2.6375    0.0208    0.0000 O   0  0  0  0  0  0  0  0  0  0  0  0
    0.6042   -1.7375    0.0000 O   0  0  0  0  0  0  0  0  0  0  0  0
    0.0167   -1.4125    0.0000 C   0  0  0  0  0  0  0  0  0  0  0  0
   -1.0833   -0.0500    0.0000 C   0  0  0  0  0  0  0  0  0  0  0  0
    3.0625   -1.5792    0.0000 O   0  0  0  0  0  0  0  0  0  0  0  0
    1.6000    0.0125    0.0000 C   0  0  0  0  0  0  0  0  0  0  0  0
   -0.5208   -0.2667    0.0000 C   0  0  0  0  0  0  0  0  0  0  0  0
    1.0792   -0.2875    0.0000 C   0  0  0  0  0  0  0  0  0  0  0  0
    1.0542   -1.4667    0.0000 C   0  0  0  0  0  0  0  0  0  0  0  0
    0.6417   -0.5500    0.0000 C   0  0  0  0  0  0  0  0  0  0  0  0
    2.6042   -1.2042    0.0000 C   0  0  0  0  0  0  0  0  0  0  0  0
    3.2250   -0.1042    0.0000 C   0  0  0  0  0  0  0  0  0  0  0  0
    1.5917   -1.2000    0.0000 C   0  0  0  0  0  0  0  0  0  0  0  0
    2.0917   -1.5167    0.0000 C   0  0  0  0  0  0  0  0  0  0  0  0
  2  4  1  0
  3  1  1  0
  4  1  1  0
  5  3  1  0
  2  6  1  1
  7 20  1  0
  8  1  2  0
  9  6  2  0
 10  7  2  0
 11 21  1  0
 12 11  2  0
 13 17  1  0
  5 14  1  6
 15  7  1  0
 13 16  1  0
 17  9  1  0
  4 18  1  6
 19 25  1  0
 20 22  1  0
 21 18  1  0
 22 12  1  0
 23 13  1  0
 24 13  1  0
 25 28  1  0
 26 15  1  0
 27 23  1  0
 28 27  1  0
  2  5  1  0
M  END

> <chembl_id>
CHEMBL6986

> <chembl_pref_name>
None

$$$$

     RDKit          2D

 29 31  0  0  0  0  0  0  0  0999 V2000
    4.8542   -5.7542    0.0000 C   0  0  0  0  0  0  0  0  0  0  0  0
    4.3750   -6.1042    0.0000 N   0  0  0  0  0  0  0  0  0  0  0  0
    5.3417   -6.1042    0.0000 O   0  0  0  0  0  0  0  0  0  0  0  0
    1.6792   -5.7792    0.0000 C   0  0  0  0  0  0  0  0  0  0  0  0
    2.1000   -5.3542    0.0000 C   0  0  0  0  0  0  0  0  0  0  0  0
    1.0917   -5.7125    0.0000 C   0  0  0  0  0  0  0  0  0  0  0  0
    0.7667   -5.2042    0.0000 C   0  0  0  0  0  0  0  0  0  0  0  0
    3.8042   -5.9167    0.0000 C   0  0  0  0  0  0  0  0  0  0  0  0
    5.1542   -6.6792    0.0000 C   0  0  0  0  0  0  0  0  0  0  0  0
    4.5542   -6.6792    0.0000 C   0  0  0  0  0  0  0  0  0  0  0  0
    4.8542   -5.1542    0.0000 O   0  0  0  0  0  0  0  0  0  0  0  0
    2.6667   -5.5500    0.0000 C   0  0  0  0  0  0  0  0  0  0  0  0
    5.6167   -8.1917    0.0000 C   0  0  0  0  0  0  0  0  0  0  0  0
    2.0292   -4.7542    0.0000 C   0  0  0  0  0  0  0  0  0  0  0  0
    1.5250   -4.4417    0.0000 C   0  0  0  0  0  0  0  0  0  0  0  0
    0.9625   -4.6417    0.0000 C   0  0  0  0  0  0  0  0  0  0  0  0
    5.2667   -7.7125    0.0000 N   0  0  0  0  0  0  0  0  0  0  0  0
    0.7792   -6.2292    0.0000 O   0  0  0  0  0  0  0  0  0  0  0  0
    5.3792   -8.7417    0.0000 O   0  0  0  0  0  0  0  0  0  0  0  0
    3.6792   -5.3292    0.0000 C   0  0  0  0  0  0  0  0  0  0  0  0
    3.3625   -6.3167    0.0000 C   0  0  0  0  0  0  0  0  0  0  0  0
    2.7917   -6.1375    0.0000 C   0  0  0  0  0  0  0  0  0  0  0  0
    3.1125   -5.1417    0.0000 C   0  0  0  0  0  0  0  0  0  0  0  0
    0.1667   -5.2750    0.0000 N   0  0  0  0  0  0  0  0  0  0  0  0
   -0.7833   -4.8625    0.0000 C   0  0  0  0  0  0  0  0  0  0  0  0
    5.5125   -7.1625    0.0000 C   0  0  0  0  0  0  0  0  0  0  0  0
   -1.1458   -4.3792    0.0000 C   0  0  0  0  0  0  0  0  0  0  0  0
   -0.1875   -4.7917    0.0000 C   0  0  0  0  0  0  0  0  0  0  0  0
    6.2167   -8.1292    0.0000 C   0  0  0  0  0  0  0  0  0  0  0  0
  2  1  1  0
  3  1  1  0
  4  5  2  0
  5 12  1  0
  6  4  1  0
  7  6  1  0
  8  2  1  0
  9  3  1  0
 10  2  1  0
 11  1  2  0
 12 22  1  0
 13 17  1  0
 14  5  1  0
 15 14  2  0
 16 15  1  0
 17 26  1  0
 18  6  2  0
 19 13  2  0
 20  8  2  0
 21  8  1  0
 22 21  2  0
 23 20  1  0
 24  7  1  0
 25 28  1  0
 26  9  1  0
 27 25  2  0
 28 24  1  0
 29 13  1  0
 10  9  1  0
 23 12  2  0
 16  7  2  0
M  END

> <chembl_id>
CHEMBL440267

> <chembl_pref_name>
None

$$$$

     RDKit          2D

 58 59  0  0  1  0  0  0  0  0999 V2000
    6.6167   -3.8917    0.0000 N   0  0  0  0  0  0  0  0  0  0  0  0
    5.9042   -3.4750    0.0000 C   0  0  0  0  0  0  0  0  0  0  0  0
    7.5667   -2.7542    0.0000 C   0  0  0  0  0  0  0  0  0  0  0  0
   13.0667   -0.8292    0.0000 N   0  0  0  0  0  0  0  0  0  0  0  0
    3.7417   -3.8667    0.0000 C   0  0  0  0  0  0  0  0  0  0  0  0
    4.4667   -3.4667    0.0000 N   0  0  0  0  0  0  0  0  0  0  0  0
    9.3292   -1.4417    0.0000 C   0  0  0  0  0  0  0  0  0  0  0  0
    2.3042   -3.8542    0.0000 N   0  0  0  0  0  0  0  0  0  0  0  0
    5.1875   -3.8875    0.0000 C   0  0  0  0  0  0  0  0  0  0  0  0
    7.3792   -3.5667    0.0000 C   0  0  0  0  0  0  0  0  0  0  0  0
    1.5875   -3.4375    0.0000 C   0  0  0  0  0  0  0  0  0  0  0  0
    8.3542   -2.5042    0.0000 N   0  0  0  0  0  0  0  0  0  0  0  0
   -0.5708   -3.8292    0.0000 C   0  0  0  0  0  0  0  0  0  0  0  0
    0.1500   -3.4250    0.0000 N   0  0  0  0  0  0  0  0  0  0  0  0
    3.0292   -3.4500    0.0000 C   0  0  0  0  0  0  0  0  0  0  0  0
    0.8667   -3.8417    0.0000 C   0  0  0  0  0  0  0  0  0  0  0  0
    8.5375   -1.7000    0.0000 N   0  0  0  0  0  0  0  0  0  0  0  0
    0.8542   -4.6750    0.0000 C   0  0  0  0  0  0  0  0  0  0  0  0
   -2.0208   -3.8167    0.0000 N   0  0  0  0  0  0  0  0  0  0  0  0
    9.7625   -0.7375    0.0000 O   0  0  0  0  0  0  0  0  0  0  0  0
    1.5750   -5.1000    0.0000 C   0  0  0  0  0  0  0  0  0  0  0  0
   -1.2958   -3.4125    0.0000 C   0  0  0  0  0  0  0  0  0  0  0  0
   12.2417   -0.8042    0.0000 C   0  0  0  0  0  0  0  0  0  0  0  0
   -2.9375   -3.3875    0.0000 C   0  0  0  0  0  0  0  0  0  0  0  0
   13.4667   -1.5542    0.0000 O   0  0  0  0  0  0  0  0  0  0  0  0
    5.9167   -2.6417    0.0000 O   0  0  0  0  0  0  0  0  0  0  0  0
   13.5042   -0.1167    0.0000 O   0  0  0  0  0  0  0  0  0  0  0  0
    6.9542   -2.1917    0.0000 O   0  0  0  0  0  0  0  0  0  0  0  0
   -0.5500   -1.3375    0.0000 C   0  0  0  0  0  0  0  0  0  0  0  0
    9.7167   -2.1667    0.0000 O   0  0  0  0  0  0  0  0  0  0  0  0
    3.7375   -4.7000    0.0000 O   0  0  0  0  0  0  0  0  0  0  0  0
    1.5917   -2.6042    0.0000 O   0  0  0  0  0  0  0  0  0  0  0  0
   -0.5833   -4.6625    0.0000 O   0  0  0  0  0  0  0  0  0  0  0  0
    1.5667   -5.9292    0.0000 O   0  0  0  0  0  0  0  0  0  0  0  0
   -2.9750   -2.5625    0.0000 O   0  0  0  0  0  0  0  0  0  0  0  0
    0.1750   -0.9292    0.0000 O   0  0  0  0  0  0  0  0  0  0  0  0
   -1.2833   -2.5792    0.0000 C   0  0  0  0  0  0  0  0  0  0  0  0
   11.8417   -0.0750    0.0000 C   0  0  0  0  0  0  0  0  0  0  0  0
   11.8125   -1.5125    0.0000 C   0  0  0  0  0  0  0  0  0  0  0  0
    5.1792   -4.7167    0.0000 C   0  0  0  0  0  0  0  0  0  0  0  0
   10.5917   -0.7542    0.0000 C   0  0  0  0  0  0  0  0  0  0  0  0
    6.7042   -4.7167    0.0000 C   0  0  0  0  0  0  0  0  0  0  0  0
    3.0375   -2.6167    0.0000 C   0  0  0  0  0  0  0  0  0  0  0  0
   -0.5583   -2.1667    0.0000 C   0  0  0  0  0  0  0  0  0  0  0  0
    2.3000   -4.6875    0.0000 O   0  0  0  0  0  0  0  0  0  0  0  0
   -1.2708   -0.9167    0.0000 O   0  0  0  0  0  0  0  0  0  0  0  0
   10.9792   -1.4875    0.0000 C   0  0  0  0  0  0  0  0  0  0  0  0
   11.0167   -0.0542    0.0000 C   0  0  0  0  0  0  0  0  0  0  0  0
    7.9375   -4.1917    0.0000 C   0  0  0  0  0  0  0  0  0  0  0  0
    7.9250   -1.1375    0.0000 C   0  0  0  0  0  0  0  0  0  0  0  0
    7.5125   -4.9042    0.0000 C   0  0  0  0  0  0  0  0  0  0  0  0
   -3.5333   -3.7292    0.0000 C   0  0  0  0  0  0  0  0  0  0  0  0
    4.4542   -5.1250    0.0000 C   0  0  0  0  0  0  0  0  0  0  0  0
    5.8917   -5.1375    0.0000 C   0  0  0  0  0  0  0  0  0  0  0  0
    3.7625   -2.2042    0.0000 C   0  0  0  0  0  0  0  0  0  0  0  0
    2.3167   -2.1917    0.0000 C   0  0  0  0  0  0  0  0  0  0  0  0
    8.1042   -0.3250    0.0000 C   0  0  0  0  0  0  0  0  0  0  0  0
    7.4917    0.2333    0.0000 C   0  0  0  0  0  0  0  0  0  0  0  0
  2  1  1  0
 10  3  1  1
  4 23  1  0
  5  6  1  0
  9  6  1  6
  7 17  1  0
 15  8  1  1
  9  2  1  0
 10  1  1  0
 11  8  1  0
 12  3  1  0
 13 14  1  0
 16 14  1  6
 15  5  1  0
 16 11  1  0
 17 12  1  0
 16 18  1  0
 22 19  1  1
 20  7  1  0
 21 18  1  0
 22 13  1  0
 23 38  1  0
 24 19  1  0
 25  4  1  0
 26  2  2  0
 27  4  2  0
 28  3  2  0
 29 44  1  0
 30  7  2  0
 31  5  2  0
 32 11  2  0
 33 13  2  0
 34 21  2  0
 35 24  2  0
 36 29  2  0
 22 37  1  0
 38 48  2  0
 39 47  1  0
  9 40  1  0
 41 20  1  0
 42  1  1  0
 15 43  1  0
 44 37  1  0
 45 21  1  0
 46 29  1  0
 47 41  2  0
 48 41  1  0
 10 49  1  0
 50 17  1  0
 51 42  1  0
 52 24  1  0
 53 40  1  0
 54 40  1  0
 55 43  1  0
 56 43  1  0
 57 50  1  0
 58 57  1  0
 49 51  1  0
 23 39  2  0
M  CHG  2   4   1  25  -1
M  END

> <chembl_id>
CHEMBL6873

> <chembl_pref_name>
None

$$$$

     RDKit          2D

 65 66  0  0  1  0  0  0  0  0999 V2000
    7.7167   -3.8917    0.0000 N   0  0  0  0  0  0  0  0  0  0  0  0
    7.0042   -3.4667    0.0000 C   0  0  0  0  0  0  0  0  0  0  0  0
    8.6625   -2.7542    0.0000 C   0  0  0  0  0  0  0  0  0  0  0  0
   14.1667   -1.0042    0.0000 N   0  0  0  0  0  0  0  0  0  0  0  0
   -1.5833   -3.3917    0.0000 C   0  0  0  0  0  0  0  0  0  0  0  0
    4.8542   -3.8667    0.0000 C   0  0  0  0  0  0  0  0  0  0  0  0
    5.5750   -3.4625    0.0000 N   0  0  0  0  0  0  0  0  0  0  0  0
   -2.3083   -3.8042    0.0000 C   0  0  0  0  0  0  0  0  0  0  0  0
   10.4125   -1.4500    0.0000 C   0  0  0  0  0  0  0  0  0  0  0  0
    3.4250   -3.8542    0.0000 N   0  0  0  0  0  0  0  0  0  0  0  0
    6.2917   -3.8792    0.0000 C   0  0  0  0  0  0  0  0  0  0  0  0
    8.4792   -3.5625    0.0000 C   0  0  0  0  0  0  0  0  0  0  0  0
    2.7125   -3.4292    0.0000 C   0  0  0  0  0  0  0  0  0  0  0  0
    9.4417   -2.5042    0.0000 N   0  0  0  0  0  0  0  0  0  0  0  0
    0.5625   -3.8292    0.0000 C   0  0  0  0  0  0  0  0  0  0  0  0
   -0.8750   -3.8125    0.0000 N   0  0  0  0  0  0  0  0  0  0  0  0
    1.2792   -3.4167    0.0000 N   0  0  0  0  0  0  0  0  0  0  0  0
    4.1417   -3.4417    0.0000 C   0  0  0  0  0  0  0  0  0  0  0  0
    1.9917   -3.8417    0.0000 C   0  0  0  0  0  0  0  0  0  0  0  0
    9.6250   -1.7042    0.0000 N   0  0  0  0  0  0  0  0  0  0  0  0
    1.9875   -4.6667    0.0000 C   0  0  0  0  0  0  0  0  0  0  0  0
   -3.0125   -3.3792    0.0000 N   0  0  0  0  0  0  0  0  0  0  0  0
   -0.1583   -3.4042    0.0000 C   0  0  0  0  0  0  0  0  0  0  0  0
   10.8750   -0.7625    0.0000 O   0  0  0  0  0  0  0  0  0  0  0  0
    2.7000   -5.0875    0.0000 C   0  0  0  0  0  0  0  0  0  0  0  0
   13.3417   -0.9417    0.0000 C   0  0  0  0  0  0  0  0  0  0  0  0
   -3.7375   -3.7917    0.0000 C   0  0  0  0  0  0  0  0  0  0  0  0
   14.5250   -1.7417    0.0000 O   0  0  0  0  0  0  0  0  0  0  0  0
    7.0167   -2.6417    0.0000 O   0  0  0  0  0  0  0  0  0  0  0  0
   14.6292   -0.3167    0.0000 O   0  0  0  0  0  0  0  0  0  0  0  0
    8.0500   -2.1917    0.0000 O   0  0  0  0  0  0  0  0  0  0  0  0
    0.5792   -1.3417    0.0000 C   0  0  0  0  0  0  0  0  0  0  0  0
   10.7667   -2.1917    0.0000 O   0  0  0  0  0  0  0  0  0  0  0  0
   -1.5750   -2.5667    0.0000 O   0  0  0  0  0  0  0  0  0  0  0  0
    4.8500   -4.6917    0.0000 O   0  0  0  0  0  0  0  0  0  0  0  0
    2.7167   -2.6042    0.0000 O   0  0  0  0  0  0  0  0  0  0  0  0
    0.5542   -4.6542    0.0000 O   0  0  0  0  0  0  0  0  0  0  0  0
   -2.3125   -4.6292    0.0000 C   0  0  0  0  0  0  0  0  0  0  0  0
    2.6917   -5.9167    0.0000 O   0  0  0  0  0  0  0  0  0  0  0  0
   -4.5500   -3.7042    0.0000 O   0  0  0  0  0  0  0  0  0  0  0  0
    1.3042   -0.9417    0.0000 O   0  0  0  0  0  0  0  0  0  0  0  0
   -0.1458   -2.5792    0.0000 C   0  0  0  0  0  0  0  0  0  0  0  0
   12.8792   -1.6292    0.0000 C   0  0  0  0  0  0  0  0  0  0  0  0
   12.9792   -0.2000    0.0000 C   0  0  0  0  0  0  0  0  0  0  0  0
    6.2792   -4.7042    0.0000 C   0  0  0  0  0  0  0  0  0  0  0  0
   11.7000   -0.8250    0.0000 C   0  0  0  0  0  0  0  0  0  0  0  0
    7.8042   -4.7125    0.0000 C   0  0  0  0  0  0  0  0  0  0  0  0
    4.1542   -2.6167    0.0000 C   0  0  0  0  0  0  0  0  0  0  0  0
    0.5792   -2.1667    0.0000 C   0  0  0  0  0  0  0  0  0  0  0  0
    3.4167   -4.6792    0.0000 O   0  0  0  0  0  0  0  0  0  0  0  0
   -0.1333   -0.9292    0.0000 O   0  0  0  0  0  0  0  0  0  0  0  0
   12.1542   -0.1417    0.0000 C   0  0  0  0  0  0  0  0  0  0  0  0
   12.0542   -1.5667    0.0000 C   0  0  0  0  0  0  0  0  0  0  0  0
    9.0292   -4.1792    0.0000 C   0  0  0  0  0  0  0  0  0  0  0  0
   -1.6000   -5.0500    0.0000 O   0  0  0  0  0  0  0  0  0  0  0  0
    9.0167   -1.1417    0.0000 C   0  0  0  0  0  0  0  0  0  0  0  0
    8.6042   -4.8917    0.0000 C   0  0  0  0  0  0  0  0  0  0  0  0
   -3.4458   -4.3000    0.0000 C   0  0  0  0  0  0  0  0  0  0  0  0
   -3.0333   -5.0375    0.0000 C   0  0  0  0  0  0  0  0  0  0  0  0
    6.9917   -5.1250    0.0000 C   0  0  0  0  0  0  0  0  0  0  0  0
    5.5625   -5.1125    0.0000 C   0  0  0  0  0  0  0  0  0  0  0  0
    3.4417   -2.2000    0.0000 C   0  0  0  0  0  0  0  0  0  0  0  0
    4.8750   -2.2125    0.0000 C   0  0  0  0  0  0  0  0  0  0  0  0
    9.1917   -0.3375    0.0000 C   0  0  0  0  0  0  0  0  0  0  0  0
    8.5875    0.2208    0.0000 C   0  0  0  0  0  0  0  0  0  0  0  0
  2  1  1  0
 12  3  1  1
  4 26  1  0
  5 16  1  0
  6  7  1  0
 11  7  1  6
  8  5  1  0
  9 20  1  0
 18 10  1  1
 11  2  1  0
 12  1  1  0
 13 10  1  0
 14  3  1  0
 15 17  1  0
 23 16  1  1
 19 17  1  6
 18  6  1  0
 19 13  1  0
 20 14  1  0
 19 21  1  0
  8 22  1  6
 23 15  1  0
 24  9  1  0
 25 21  1  0
 26 43  2  0
 27 22  1  0
 28  4  1  0
 29  2  2  0
 30  4  2  0
 31  3  2  0
 32 49  1  0
 33  9  2  0
 34  5  2  0
 35  6  2  0
 36 13  2  0
 37 15  2  0
  8 38  1  0
 39 25  2  0
 40 27  2  0
 41 32  2  0
 23 42  1  0
 43 53  1  0
 44 52  2  0
 11 45  1  0
 46 24  1  0
 47  1  1  0
 18 48  1  0
 49 42  1  0
 50 25  1  0
 51 32  1  0
 52 46  1  0
 53 46  2  0
 12 54  1  0
 38 55  1  6
 56 20  1  0
 57 47  1  0
 58 27  1  0
 59 38  1  0
 60 45  1  0
 61 45  1  0
 62 48  1  0
 63 48  1  0
 64 56  1  0
 65 64  1  0
 54 57  1  0
 44 26  1  0
M  CHG  2   4   1  28  -1
M  END

> <chembl_id>
CHEMBL6738

> <chembl_pref_name>
None

$$$$

     RDKit          2D

 73 74  0  0  1  0  0  0  0  0999 V2000
    9.1000   -5.0417    0.0000 N   0  0  0  0  0  0  0  0  0  0  0  0
    8.3875   -4.6250    0.0000 C   0  0  0  0  0  0  0  0  0  0  0  0
   -0.9250   -4.9542    0.0000 C   0  0  0  0  0  0  0  0  0  0  0  0
   15.1125   -0.8125    0.0000 N   0  0  0  0  0  0  0  0  0  0  0  0
   -0.2000   -4.5500    0.0000 C   0  0  0  0  0  0  0  0  0  0  0  0
    6.2375   -5.0167    0.0000 C   0  0  0  0  0  0  0  0  0  0  0  0
   -1.6333   -4.5375    0.0000 N   0  0  0  0  0  0  0  0  0  0  0  0
    6.9542   -4.6167    0.0000 N   0  0  0  0  0  0  0  0  0  0  0  0
   10.0417   -3.9042    0.0000 C   0  0  0  0  0  0  0  0  0  0  0  0
    4.8042   -5.0042    0.0000 N   0  0  0  0  0  0  0  0  0  0  0  0
    7.6667   -5.0292    0.0000 C   0  0  0  0  0  0  0  0  0  0  0  0
   -2.3583   -4.9417    0.0000 C   0  0  0  0  0  0  0  0  0  0  0  0
    4.0917   -4.5875    0.0000 C   0  0  0  0  0  0  0  0  0  0  0  0
    9.8542   -4.7167    0.0000 C   0  0  0  0  0  0  0  0  0  0  0  0
    1.9417   -4.9792    0.0000 C   0  0  0  0  0  0  0  0  0  0  0  0
    0.5042   -4.9667    0.0000 N   0  0  0  0  0  0  0  0  0  0  0  0
    2.6542   -4.5750    0.0000 N   0  0  0  0  0  0  0  0  0  0  0  0
    5.5250   -4.6000    0.0000 C   0  0  0  0  0  0  0  0  0  0  0  0
   10.8250   -3.6625    0.0000 N   0  0  0  0  0  0  0  0  0  0  0  0
    3.3750   -4.9917    0.0000 C   0  0  0  0  0  0  0  0  0  0  0  0
   11.7917   -2.6042    0.0000 C   0  0  0  0  0  0  0  0  0  0  0  0
   -3.0708   -4.5250    0.0000 C   0  0  0  0  0  0  0  0  0  0  0  0
    3.3667   -5.8167    0.0000 C   0  0  0  0  0  0  0  0  0  0  0  0
   -3.0625   -3.7000    0.0000 C   0  0  0  0  0  0  0  0  0  0  0  0
   -3.7875   -4.9292    0.0000 N   0  0  0  0  0  0  0  0  0  0  0  0
    1.2250   -4.5625    0.0000 C   0  0  0  0  0  0  0  0  0  0  0  0
   -2.3458   -3.2875    0.0000 C   0  0  0  0  0  0  0  0  0  0  0  0
    4.0792   -6.2417    0.0000 C   0  0  0  0  0  0  0  0  0  0  0  0
   14.3250   -1.0625    0.0000 C   0  0  0  0  0  0  0  0  0  0  0  0
   11.0042   -2.8542    0.0000 C   0  0  0  0  0  0  0  0  0  0  0  0
   11.9667   -1.8042    0.0000 O   0  0  0  0  0  0  0  0  0  0  0  0
   -3.7958   -5.7542    0.0000 C   0  0  0  0  0  0  0  0  0  0  0  0
   15.7167   -1.3667    0.0000 O   0  0  0  0  0  0  0  0  0  0  0  0
    8.3917   -3.8000    0.0000 O   0  0  0  0  0  0  0  0  0  0  0  0
   15.2875   -0.0042    0.0000 O   0  0  0  0  0  0  0  0  0  0  0  0
    1.9625   -2.5000    0.0000 C   0  0  0  0  0  0  0  0  0  0  0  0
   -0.1958   -3.7167    0.0000 O   0  0  0  0  0  0  0  0  0  0  0  0
    6.2292   -5.8417    0.0000 O   0  0  0  0  0  0  0  0  0  0  0  0
    9.4292   -3.3500    0.0000 O   0  0  0  0  0  0  0  0  0  0  0  0
   -2.3625   -5.7667    0.0000 O   0  0  0  0  0  0  0  0  0  0  0  0
    4.1000   -3.7625    0.0000 O   0  0  0  0  0  0  0  0  0  0  0  0
    1.9292   -5.8042    0.0000 O   0  0  0  0  0  0  0  0  0  0  0  0
   12.4000   -3.1667    0.0000 O   0  0  0  0  0  0  0  0  0  0  0  0
   -0.9333   -5.7792    0.0000 C   0  0  0  0  0  0  0  0  0  0  0  0
   -2.3375   -2.4625    0.0000 O   0  0  0  0  0  0  0  0  0  0  0  0
    4.0667   -7.0667    0.0000 O   0  0  0  0  0  0  0  0  0  0  0  0
   -4.5208   -6.1667    0.0000 O   0  0  0  0  0  0  0  0  0  0  0  0
    2.6792   -2.0917    0.0000 O   0  0  0  0  0  0  0  0  0  0  0  0
    1.2375   -3.7375    0.0000 C   0  0  0  0  0  0  0  0  0  0  0  0
   13.7125   -0.5042    0.0000 C   0  0  0  0  0  0  0  0  0  0  0  0
   14.1417   -1.8667    0.0000 C   0  0  0  0  0  0  0  0  0  0  0  0
    7.6625   -5.8625    0.0000 C   0  0  0  0  0  0  0  0  0  0  0  0
   12.7542   -1.5542    0.0000 C   0  0  0  0  0  0  0  0  0  0  0  0
    9.1792   -5.8667    0.0000 C   0  0  0  0  0  0  0  0  0  0  0  0
    5.5292   -3.7750    0.0000 C   0  0  0  0  0  0  0  0  0  0  0  0
    1.9542   -3.3250    0.0000 C   0  0  0  0  0  0  0  0  0  0  0  0
    4.8000   -5.8292    0.0000 O   0  0  0  0  0  0  0  0  0  0  0  0
   -1.6333   -3.7042    0.0000 O   0  0  0  0  0  0  0  0  0  0  0  0
    1.2500   -2.0792    0.0000 O   0  0  0  0  0  0  0  0  0  0  0  0
   12.9292   -0.7542    0.0000 C   0  0  0  0  0  0  0  0  0  0  0  0
   13.3625   -2.1125    0.0000 C   0  0  0  0  0  0  0  0  0  0  0  0
   10.4042   -5.3375    0.0000 C   0  0  0  0  0  0  0  0  0  0  0  0
   -0.2208   -6.2042    0.0000 O   0  0  0  0  0  0  0  0  0  0  0  0
    9.9875   -6.0500    0.0000 C   0  0  0  0  0  0  0  0  0  0  0  0
   -3.0833   -6.1750    0.0000 C   0  0  0  0  0  0  0  0  0  0  0  0
   10.3917   -2.3000    0.0000 C   0  0  0  0  0  0  0  0  0  0  0  0
   -1.6583   -6.1917    0.0000 C   0  0  0  0  0  0  0  0  0  0  0  0
    8.3750   -6.2792    0.0000 C   0  0  0  0  0  0  0  0  0  0  0  0
    6.9417   -6.2667    0.0000 C   0  0  0  0  0  0  0  0  0  0  0  0
    4.8167   -3.3542    0.0000 C   0  0  0  0  0  0  0  0  0  0  0  0
    6.2542   -3.3667    0.0000 C   0  0  0  0  0  0  0  0  0  0  0  0
   10.5750   -1.4917    0.0000 C   0  0  0  0  0  0  0  0  0  0  0  0
    9.9667   -0.9375    0.0000 C   0  0  0  0  0  0  0  0  0  0  0  0
  2  1  1  0
  3  5  1  0
  4 29  1  0
  5 16  1  0
  6  8  1  0
  3  7  1  6
 11  8  1  6
 14  9  1  1
 18 10  1  1
 11  2  1  0
 12  7  1  0
 13 10  1  0
 14  1  1  0
 15 17  1  0
 26 16  1  1
 20 17  1  6
 18  6  1  0
 19  9  1  0
 20 13  1  0
 21 30  1  0
 22 12  1  0
 20 23  1  0
 22 24  1  1
 25 22  1  0
 26 15  1  0
 27 24  1  0
 28 23  1  0
 29 51  2  0
 30 19  1  0
 31 21  1  0
 32 25  1  0
 33  4  1  0
 34  2  2  0
 35  4  2  0
 36 56  1  0
 37  5  2  0
 38  6  2  0
 39  9  2  0
 40 12  2  0
 41 13  2  0
 42 15  2  0
 43 21  2  0
  3 44  1  0
 45 27  2  0
 46 28  2  0
 47 32  2  0
 48 36  2  0
 26 49  1  0
 50 60  2  0
 51 61  1  0
 11 52  1  0
 53 31  1  0
 54  1  1  0
 18 55  1  0
 56 49  1  0
 57 28  1  0
 58 27  1  0
 59 36  1  0
 60 53  1  0
 61 53  2  0
 14 62  1  0
 44 63  1  6
 64 54  1  0
 65 32  1  0
 66 30  1  0
 67 44  1  0
 68 52  1  0
 69 52  1  0
 70 55  1  0
 71 55  1  0
 72 66  1  0
 73 72  1  0
 62 64  1  0
 29 50  1  0
M  CHG  2   4   1  33  -1
M  END

> <chembl_id>
CHEMBL425625

> <chembl_pref_name>
None

$$$$

     RDKit          2D

 14 14  0  0  0  0  0  0  0  0999 V2000
    1.0417   -5.0500    0.0000 Cl  0  0  0  0  0  0  0  0  0  0  0  0
   -1.3333   -3.0250    0.0000 C   0  0  0  0  0  0  0  0  0  0  0  0
   -0.5125   -3.5417    0.0000 N   0  0  0  0  0  0  0  0  0  0  0  0
   -0.7333   -2.9875    0.0000 C   0  0  0  0  0  0  0  0  0  0  0  0
   -1.4833   -3.6042    0.0000 C   0  0  0  0  0  0  0  0  0  0  0  0
   -0.9750   -3.9292    0.0000 O   0  0  0  0  0  0  0  0  0  0  0  0
   -2.3375   -2.7542    0.0000 N   0  0  0  0  0  0  0  0  0  0  0  0
   -1.7583   -2.6000    0.0000 C   0  0  0  0  0  0  0  0  0  0  0  0
    0.4542   -1.9375    0.0000 C   0  0  0  0  0  0  0  0  0  0  0  0
    1.0542   -1.9292    0.0000 C   0  0  0  0  0  0  0  0  0  0  0  0
   -2.0625   -3.7625    0.0000 C   0  0  0  0  0  0  0  0  0  0  0  0
   -0.4375   -2.4667    0.0000 O   0  0  0  0  0  0  0  0  0  0  0  0
   -2.4958   -3.3417    0.0000 C   0  0  0  0  0  0  0  0  0  0  0  0
    0.1625   -2.4542    0.0000 C   0  0  0  0  0  0  0  0  0  0  0  0
  3  4  2  0
  4  2  1  0
  5  2  2  0
  6  5  1  0
  7  8  1  0
  8  2  1  0
  9 14  1  0
 10  9  2  0
 11  5  1  0
 12  4  1  0
 13  7  1  0
 14 12  1  0
  3  6  1  0
 13 11  1  0
M  END

> <chembl_id>
CHEMBL268175

> <chembl_pref_name>
None

$$$$

     RDKit          2D

 18 19  0  0  0  0  0  0  0  0999 V2000
    1.0417   -5.0500    0.0000 Cl  0  0  0  0  0  0  0  0  0  0  0  0
   -1.3333   -3.0250    0.0000 C   0  0  0  0  0  0  0  0  0  0  0  0
   -0.5125   -3.5417    0.0000 N   0  0  0  0  0  0  0  0  0  0  0  0
   -0.7333   -2.9875    0.0000 C   0  0  0  0  0  0  0  0  0  0  0  0
   -1.4833   -3.6042    0.0000 C   0  0  0  0  0  0  0  0  0  0  0  0
   -0.9750   -3.9292    0.0000 O   0  0  0  0  0  0  0  0  0  0  0  0
   -2.3375   -2.7542    0.0000 N   0  0  0  0  0  0  0  0  0  0  0  0
   -0.4375   -2.4667    0.0000 O   0  0  0  0  0  0  0  0  0  0  0  0
   -1.7583   -2.6000    0.0000 C   0  0  0  0  0  0  0  0  0  0  0  0
   -2.0625   -3.7625    0.0000 C   0  0  0  0  0  0  0  0  0  0  0  0
    0.1625   -2.4542    0.0000 C   0  0  0  0  0  0  0  0  0  0  0  0
   -2.4958   -3.3417    0.0000 C   0  0  0  0  0  0  0  0  0  0  0  0
    0.4542   -1.9375    0.0000 C   0  0  0  0  0  0  0  0  0  0  0  0
    0.1500   -1.4250    0.0000 C   0  0  0  0  0  0  0  0  0  0  0  0
    1.0542   -1.9292    0.0000 C   0  0  0  0  0  0  0  0  0  0  0  0
    1.3500   -1.4125    0.0000 C   0  0  0  0  0  0  0  0  0  0  0  0
    0.4417   -0.9000    0.0000 C   0  0  0  0  0  0  0  0  0  0  0  0
    1.0417   -0.8917    0.0000 C   0  0  0  0  0  0  0  0  0  0  0  0
  3  4  2  0
  4  2  1  0
  5  2  2  0
  6  5  1  0
  7  9  1  0
  8  4  1  0
  9  2  1  0
 10  5  1  0
 11  8  1  0
 12  7  1  0
 13 11  1  0
 14 13  1  0
 15 13  2  0
 16 15  1  0
 17 14  2  0
 18 16  2  0
  3  6  1  0
 12 10  1  0
 17 18  1  0
M  END

> <chembl_id>
CHEMBL6587

> <chembl_pref_name>
None

$$$$

     RDKit          2D

 14 14  0  0  0  0  0  0  0  0999 V2000
    6.9167   -4.3000    0.0000 Cl  0  0  0  0  0  0  0  0  0  0  0  0
    4.5417   -2.2750    0.0000 C   0  0  0  0  0  0  0  0  0  0  0  0
    5.3667   -2.7917    0.0000 N   0  0  0  0  0  0  0  0  0  0  0  0
    5.1417   -2.2375    0.0000 C   0  0  0  0  0  0  0  0  0  0  0  0
    4.3917   -2.8542    0.0000 C   0  0  0  0  0  0  0  0  0  0  0  0
    3.5417   -2.0042    0.0000 N   0  0  0  0  0  0  0  0  0  0  0  0
    4.9042   -3.1792    0.0000 O   0  0  0  0  0  0  0  0  0  0  0  0
    4.1167   -1.8500    0.0000 C   0  0  0  0  0  0  0  0  0  0  0  0
    3.8167   -3.0125    0.0000 C   0  0  0  0  0  0  0  0  0  0  0  0
    3.3875   -2.5917    0.0000 C   0  0  0  0  0  0  0  0  0  0  0  0
    5.4417   -1.7167    0.0000 O   0  0  0  0  0  0  0  0  0  0  0  0
    3.5292   -1.4042    0.0000 C   0  0  0  0  0  0  0  0  0  0  0  0
    6.0417   -1.7042    0.0000 C   0  0  0  0  0  0  0  0  0  0  0  0
    3.0042   -1.1042    0.0000 C   0  0  0  0  0  0  0  0  0  0  0  0
  3  4  2  0
  4  2  1  0
  5  2  2  0
  6  8  1  0
  7  5  1  0
  8  2  1  0
  9  5  1  0
 10  6  1  0
 11  4  1  0
 12  6  1  0
 13 11  1  0
 14 12  1  0
  3  7  1  0
 10  9  1  0
M  END

> <chembl_id>
CHEMBL6568

> <chembl_pref_name>
None

$$$$

     RDKit          2D

 19 21  0  0  0  0  0  0  0  0999 V2000
    0.4872   -3.7470    0.0000 N   0  0  0  0  0  0  0  0  0  0  0  0
    3.3438   -5.3932    0.0000 N   0  0  0  0  0  0  0  0  0  0  0  0
    4.0560   -4.9768    0.0000 C   0  0  0  0  0  0  0  0  0  0  0  0
    1.1994   -4.1556    0.0000 C   0  0  0  0  0  0  0  0  0  0  0  0
    4.7721   -5.3854    0.0000 N   0  0  0  0  0  0  0  0  0  0  0  0
    3.3360   -3.7392    0.0000 N   0  0  0  0  0  0  0  0  0  0  0  0
    1.9116   -3.7392    0.0000 C   0  0  0  0  0  0  0  0  0  0  0  0
    2.6238   -4.1556    0.0000 C   0  0  0  0  0  0  0  0  0  0  0  0
    2.6238   -4.9768    0.0000 C   0  0  0  0  0  0  0  0  0  0  0  0
    0.4872   -2.9180    0.0000 O   0  0  0  0  0  0  0  0  0  0  0  0
    4.0482   -4.1478    0.0000 C   0  0  0  0  0  0  0  0  0  0  0  0
   -0.2289   -4.1556    0.0000 O   0  0  0  0  0  0  0  0  0  0  0  0
    6.1965   -6.2027    0.0000 N   0  0  0  0  0  0  0  0  0  0  0  0
    1.1994   -4.9846    0.0000 C   0  0  0  0  0  0  0  0  0  0  0  0
    1.9116   -5.3971    0.0000 C   0  0  0  0  0  0  0  0  0  0  0  0
    5.4804   -4.9651    0.0000 C   0  0  0  0  0  0  0  0  0  0  0  0
    4.7721   -6.2105    0.0000 C   0  0  0  0  0  0  0  0  0  0  0  0
    5.4843   -6.6191    0.0000 C   0  0  0  0  0  0  0  0  0  0  0  0
    6.1965   -5.3815    0.0000 C   0  0  0  0  0  0  0  0  0  0  0  0
  2  9  1  0
  3  2  2  0
  4  1  1  0
  5  3  1  0
  6  8  1  0
  7  4  1  0
  8  7  2  0
  9 15  2  0
 10  1  1  0
 11  6  2  0
 12  1  2  0
 13 18  1  0
 14  4  2  0
 15 14  1  0
 16  5  1  0
 17  5  1  0
 18 17  1  0
 19 16  1  0
  9  8  1  0
 11  3  1  0
 19 13  1  0
M  CHG  2   1   1  10  -1
M  END

> <chembl_id>
CHEMBL6569

> <chembl_pref_name>
None

$$$$

     RDKit          2D

 21 23  0  0  0  0  0  0  0  0999 V2000
    2.2042   -1.6500    0.0000 N   0  0  0  0  0  0  0  0  0  0  0  0
    1.4250   -0.5667    0.0000 C   0  0  0  0  0  0  0  0  0  0  0  0
    1.4250   -1.3917    0.0000 C   0  0  0  0  0  0  0  0  0  0  0  0
    2.2042   -0.3125    0.0000 N   0  0  0  0  0  0  0  0  0  0  0  0
    2.6917   -0.9792    0.0000 C   0  0  0  0  0  0  0  0  0  0  0  0
    0.7042   -0.1542    0.0000 C   0  0  0  0  0  0  0  0  0  0  0  0
    0.7042   -1.8125    0.0000 N   0  0  0  0  0  0  0  0  0  0  0  0
    2.4667   -2.4375    0.0000 C   0  0  0  0  0  0  0  0  0  0  0  0
   -0.0083   -0.5750    0.0000 N   0  0  0  0  0  0  0  0  0  0  0  0
    3.2667   -2.6042    0.0000 C   0  0  0  0  0  0  0  0  0  0  0  0
   -0.0083   -1.4000    0.0000 C   0  0  0  0  0  0  0  0  0  0  0  0
    3.8167   -1.9917    0.0000 C   0  0  0  0  0  0  0  0  0  0  0  0
    0.7042    0.6708    0.0000 N   0  0  0  0  0  0  0  0  0  0  0  0
    3.6042   -1.1917    0.0000 F   0  0  0  0  0  0  0  0  0  0  0  0
    3.5250   -3.3917    0.0000 C   0  0  0  0  0  0  0  0  0  0  0  0
    4.6250   -2.1625    0.0000 C   0  0  0  0  0  0  0  0  0  0  0  0
   -0.0083    1.0750    0.0000 C   0  0  0  0  0  0  0  0  0  0  0  0
   -0.0125    1.9000    0.0000 C   0  0  0  0  0  0  0  0  0  0  0  0
    4.3292   -3.5625    0.0000 C   0  0  0  0  0  0  0  0  0  0  0  0
   -0.7333    2.3125    0.0000 C   0  0  0  0  0  0  0  0  0  0  0  0
    4.8792   -2.9500    0.0000 C   0  0  0  0  0  0  0  0  0  0  0  0
  2  3  1  0
  3  1  1  0
  4  5  2  0
  5  1  1  0
  6  2  2  0
  7  3  2  0
  8  1  1  0
  9 11  2  0
 10  8  1  0
 11  7  1  0
 12 10  1  0
 13  6  1  0
 14 12  1  0
 15 10  2  0
 16 12  2  0
 17 13  1  0
 18 17  1  0
 19 15  1  0
 20 18  1  0
 21 19  2  0
  4  2  1  0
  6  9  1  0
 16 21  1  0
M  END

> <chembl_id>
CHEMBL6387

> <chembl_pref_name>
None

$$$$

     RDKit          2D

 22 24  0  0  0  0  0  0  0  0999 V2000
    4.3875   -1.3542    0.0000 C   0  0  0  0  0  0  0  0  0  0  0  0
    3.6167   -1.0375    0.0000 N   0  0  0  0  0  0  0  0  0  0  0  0
    4.9167   -0.7292    0.0000 C   0  0  0  0  0  0  0  0  0  0  0  0
    2.7542   -2.2500    0.0000 C   0  0  0  0  0  0  0  0  0  0  0  0
    2.9000   -1.4292    0.0000 C   0  0  0  0  0  0  0  0  0  0  0  0
    4.4917   -0.0292    0.0000 N   0  0  0  0  0  0  0  0  0  0  0  0
    3.3000   -2.8625    0.0000 C   0  0  0  0  0  0  0  0  0  0  0  0
    4.1125   -2.8125    0.0000 N   0  0  0  0  0  0  0  0  0  0  0  0
    3.6875   -0.2167    0.0000 C   0  0  0  0  0  0  0  0  0  0  0  0
    5.7417   -0.7792    0.0000 C   0  0  0  0  0  0  0  0  0  0  0  0
    4.5917   -2.1417    0.0000 C   0  0  0  0  0  0  0  0  0  0  0  0
    1.9417   -2.3625    0.0000 S   0  0  0  0  0  0  0  0  0  0  0  0
    2.1667   -1.0500    0.0000 C   0  0  0  0  0  0  0  0  0  0  0  0
    6.1125   -1.5250    0.0000 O   0  0  0  0  0  0  0  0  0  0  0  0
    1.5792   -1.6167    0.0000 C   0  0  0  0  0  0  0  0  0  0  0  0
    2.9875   -3.6292    0.0000 O   0  0  0  0  0  0  0  0  0  0  0  0
    6.2042   -0.0917    0.0000 O   0  0  0  0  0  0  0  0  0  0  0  0
    6.9292   -1.5750    0.0000 C   0  0  0  0  0  0  0  0  0  0  0  0
    4.5042   -3.5417    0.0000 C   0  0  0  0  0  0  0  0  0  0  0  0
    7.3000   -2.3167    0.0000 C   0  0  0  0  0  0  0  0  0  0  0  0
    7.3917   -0.8875    0.0000 C   0  0  0  0  0  0  0  0  0  0  0  0
    7.7542   -1.5750    0.0000 C   0  0  0  0  0  0  0  0  0  0  0  0
  2  1  1  0
  3  1  2  0
  4  5  2  0
  5  2  1  0
  6  3  1  0
  7  8  1  0
  8 11  1  0
  9  2  1  0
 10  3  1  0
 11  1  1  0
 12  4  1  0
 13  5  1  0
 14 10  1  0
 15 13  2  0
 16  7  2  0
 17 10  2  0
 18 14  1  0
 19  8  1  0
 20 18  1  0
 21 18  1  0
 22 18  1  0
  6  9  2  0
  4  7  1  0
 15 12  1  0
M  END

> <chembl_id>
CHEMBL269366

> <chembl_pref_name>
RO-194603

$$$$

     RDKit          2D

 28 30  0  0  0  0  0  0  0  0999 V2000
    4.7875   -2.2375    0.0000 C   0  0  0  0  0  0  0  0  0  0  0  0
    5.3250   -1.6042    0.0000 C   0  0  0  0  0  0  0  0  0  0  0  0
    4.0250   -1.9167    0.0000 N   0  0  0  0  0  0  0  0  0  0  0  0
    3.1625   -3.1292    0.0000 C   0  0  0  0  0  0  0  0  0  0  0  0
    4.8917   -0.9042    0.0000 N   0  0  0  0  0  0  0  0  0  0  0  0
    3.7042   -3.7375    0.0000 C   0  0  0  0  0  0  0  0  0  0  0  0
    3.3042   -2.3125    0.0000 C   0  0  0  0  0  0  0  0  0  0  0  0
    4.5167   -3.6917    0.0000 N   0  0  0  0  0  0  0  0  0  0  0  0
    4.0917   -1.0917    0.0000 C   0  0  0  0  0  0  0  0  0  0  0  0
    6.1500   -1.6625    0.0000 C   0  0  0  0  0  0  0  0  0  0  0  0
    4.9917   -3.0250    0.0000 C   0  0  0  0  0  0  0  0  0  0  0  0
    0.2042   -3.4667    0.0000 N   0  0  0  0  0  0  0  0  0  0  0  0
    0.9792   -3.1750    0.0000 N   0  0  0  0  0  0  0  0  0  0  0  0
    6.5167   -2.4000    0.0000 O   0  0  0  0  0  0  0  0  0  0  0  0
    2.3792   -3.4167    0.0000 C   0  0  0  0  0  0  0  0  0  0  0  0
    2.6667   -1.7792    0.0000 C   0  0  0  0  0  0  0  0  0  0  0  0
    3.3917   -4.5042    0.0000 O   0  0  0  0  0  0  0  0  0  0  0  0
    6.6125   -0.9667    0.0000 O   0  0  0  0  0  0  0  0  0  0  0  0
   -0.5708   -3.7542    0.0000 N   0  0  0  0  0  0  0  0  0  0  0  0
    7.3375   -2.4542    0.0000 C   0  0  0  0  0  0  0  0  0  0  0  0
    1.7500   -2.8917    0.0000 C   0  0  0  0  0  0  0  0  0  0  0  0
    1.8875   -2.0667    0.0000 C   0  0  0  0  0  0  0  0  0  0  0  0
    4.9042   -4.4250    0.0000 C   0  0  0  0  0  0  0  0  0  0  0  0
    8.1625   -2.4542    0.0000 C   0  0  0  0  0  0  0  0  0  0  0  0
    7.7042   -3.1917    0.0000 C   0  0  0  0  0  0  0  0  0  0  0  0
    7.7917   -1.7667    0.0000 C   0  0  0  0  0  0  0  0  0  0  0  0
   -1.2083   -3.2250    0.0000 C   0  0  0  0  0  0  0  0  0  0  0  0
   -0.7083   -4.5667    0.0000 C   0  0  0  0  0  0  0  0  0  0  0  0
  2  1  2  0
  3  1  1  0
  4  7  2  0
  5  2  1  0
  6  8  1  0
  7  3  1  0
  8 11  1  0
  9  3  1  0
 10  2  1  0
 11  1  1  0
 12 13  2  3
 13 21  1  0
 14 10  1  0
 15  4  1  0
 16  7  1  0
 17  6  2  0
 18 10  2  0
 19 12  1  0
 20 14  1  0
 21 22  1  0
 22 16  2  0
 23  8  1  0
 24 20  1  0
 25 20  1  0
 26 20  1  0
 27 19  1  0
 28 19  1  0
  5  9  2  0
  4  6  1  0
 21 15  2  0
M  END

> <chembl_id>
CHEMBL6407

> <chembl_pref_name>
None

$$$$

     RDKit          2D

 26 28  0  0  0  0  0  0  0  0999 V2000
    6.0375   -2.3917    0.0000 C   0  0  0  0  0  0  0  0  0  0  0  0
    6.5667   -1.7667    0.0000 C   0  0  0  0  0  0  0  0  0  0  0  0
    5.2667   -2.0667    0.0000 N   0  0  0  0  0  0  0  0  0  0  0  0
    4.4042   -3.2875    0.0000 C   0  0  0  0  0  0  0  0  0  0  0  0
    6.1417   -1.0667    0.0000 N   0  0  0  0  0  0  0  0  0  0  0  0
    4.9500   -3.8917    0.0000 C   0  0  0  0  0  0  0  0  0  0  0  0
    4.5500   -2.4667    0.0000 C   0  0  0  0  0  0  0  0  0  0  0  0
    5.7625   -3.8417    0.0000 N   0  0  0  0  0  0  0  0  0  0  0  0
    5.3375   -1.2542    0.0000 C   0  0  0  0  0  0  0  0  0  0  0  0
    7.3917   -1.8167    0.0000 C   0  0  0  0  0  0  0  0  0  0  0  0
    6.2417   -3.1792    0.0000 C   0  0  0  0  0  0  0  0  0  0  0  0
    1.4500   -3.6167    0.0000 C   0  0  0  0  0  0  0  0  0  0  0  0
    7.7625   -2.5542    0.0000 O   0  0  0  0  0  0  0  0  0  0  0  0
    3.6292   -3.5750    0.0000 C   0  0  0  0  0  0  0  0  0  0  0  0
    3.9125   -1.9417    0.0000 C   0  0  0  0  0  0  0  0  0  0  0  0
    2.2250   -3.3292    0.0000 N   0  0  0  0  0  0  0  0  0  0  0  0
    4.6375   -4.6667    0.0000 O   0  0  0  0  0  0  0  0  0  0  0  0
    0.7872   -3.8626    0.0000 S   0  0  0  0  0  0  0  0  0  0  0  0
    7.8542   -1.1292    0.0000 O   0  0  0  0  0  0  0  0  0  0  0  0
    8.5792   -2.6125    0.0000 C   0  0  0  0  0  0  0  0  0  0  0  0
    2.9917   -3.0500    0.0000 C   0  0  0  0  0  0  0  0  0  0  0  0
    3.1292   -2.2292    0.0000 C   0  0  0  0  0  0  0  0  0  0  0  0
    6.1542   -4.5792    0.0000 C   0  0  0  0  0  0  0  0  0  0  0  0
    9.4042   -2.6042    0.0000 C   0  0  0  0  0  0  0  0  0  0  0  0
    8.9500   -3.3542    0.0000 C   0  0  0  0  0  0  0  0  0  0  0  0
    9.0417   -1.9250    0.0000 C   0  0  0  0  0  0  0  0  0  0  0  0
  2  1  2  0
  3  1  1  0
  4  7  2  0
  5  2  1  0
  6  8  1  0
  7  3  1  0
  8 11  1  0
  9  3  1  0
 10  2  1  0
 11  1  1  0
 12 16  2  0
 13 10  1  0
 14  4  1  0
 15  7  1  0
 16 21  1  0
 17  6  2  0
 18 12  2  0
 19 10  2  0
 20 13  1  0
 21 22  1  0
 22 15  2  0
 23  8  1  0
 24 20  1  0
 25 20  1  0
 26 20  1  0
  5  9  2  0
  4  6  1  0
 21 14  2  0
M  END

> <chembl_id>
CHEMBL6814

> <chembl_pref_name>
None

$$$$

     RDKit          2D

 39 43  0  0  1  0  0  0  0  0999 V2000
   11.7167   -1.3125    0.0000 C   0  0  0  0  0  0  0  0  0  0  0  0
   11.7167   -2.1375    0.0000 C   0  0  0  0  0  0  0  0  0  0  0  0
   12.4292   -1.7250    0.0000 C   0  0  0  0  0  0  0  0  0  0  0  0
    9.6417   -2.3250    0.0000 C   0  0  0  0  0  0  0  0  0  0  0  0
    9.3542   -3.0750    0.0000 C   0  0  0  0  0  0  0  0  0  0  0  0
   10.3042   -2.1417    0.0000 C   0  0  0  0  0  0  0  0  0  0  0  0
   11.0042   -2.5500    0.0000 C   0  0  0  0  0  0  0  0  0  0  0  0
    9.0167   -1.8250    0.0000 C   0  0  0  0  0  0  0  0  0  0  0  0
    8.5542   -3.0292    0.0000 C   0  0  0  0  0  0  0  0  0  0  0  0
    8.3417   -2.2625    0.0000 C   0  0  0  0  0  0  0  0  0  0  0  0
   11.0042   -0.9000    0.0000 C   0  0  0  0  0  0  0  0  0  0  0  0
   10.3042   -1.3125    0.0000 C   0  0  0  0  0  0  0  0  0  0  0  0
   12.3042   -0.7250    0.0000 O   0  0  0  0  0  0  0  0  0  0  0  0
   11.1792   -3.2375    0.0000 C   0  0  0  0  0  0  0  0  0  0  0  0
   10.6542   -3.8500    0.0000 C   0  0  0  0  0  0  0  0  0  0  0  0
   12.0792    0.0625    0.0000 C   0  0  0  0  0  0  0  0  0  0  0  0
    9.8042   -3.7750    0.0000 C   0  0  0  0  0  0  0  0  0  0  0  0
   12.0917   -5.4875    0.0000 C   0  0  0  0  0  0  0  0  0  0  0  0
    8.0417   -3.6750    0.0000 O   0  0  0  0  0  0  0  0  0  0  0  0
    8.9417   -3.7875    0.0000 O   0  0  0  0  0  0  0  0  0  0  0  0
   11.2792    0.2750    0.0000 O   0  0  0  0  0  0  0  0  0  0  0  0
    9.5792   -1.7292    0.0000 O   0  0  0  0  0  0  0  0  0  0  0  0
   12.9167   -5.6000    0.0000 O   0  0  0  0  0  0  0  0  0  0  0  0
   11.7792   -4.7250    0.0000 O   0  0  0  0  0  0  0  0  0  0  0  0
   13.1417   -2.1375    0.0000 C   0  0  0  0  0  0  0  0  0  0  0  0
   13.0167   -1.1375    0.0000 C   0  0  0  0  0  0  0  0  0  0  0  0
   12.6667    0.6500    0.0000 C   0  0  0  0  0  0  0  0  0  0  0  0
   10.9667   -4.6125    0.0000 C   0  0  0  0  0  0  0  0  0  0  0  0
    7.5792   -1.9667    0.0000 C   0  0  0  0  0  0  0  0  0  0  0  0
   13.4667    0.4458    0.0000 C   0  0  0  0  0  0  0  0  0  0  0  0
    9.5792   -0.9042    0.0000 C   0  0  0  0  0  0  0  0  0  0  0  0
   11.5917   -6.1375    0.0000 C   0  0  0  0  0  0  0  0  0  0  0  0
   14.0292    1.0333    0.0000 C   0  0  0  0  0  0  0  0  0  0  0  0
   13.6792   -0.3500    0.0000 C   0  0  0  0  0  0  0  0  0  0  0  0
   14.4792   -0.5625    0.0000 C   0  0  0  0  0  0  0  0  0  0  0  0
   14.8292    0.8250    0.0000 C   0  0  0  0  0  0  0  0  0  0  0  0
   15.0542    0.0250    0.0000 C   0  0  0  0  0  0  0  0  0  0  0  0
   11.7167   -2.9625    0.0000 H   0  0  0  0  0  0  0  0  0  0  0  0
   12.4292   -2.5500    0.0000 H   0  0  0  0  0  0  0  0  0  0  0  0
  2  1  1  0
  3  1  1  0
  4  6  1  0
  5  4  1  0
  6 12  1  0
  7  2  1  0
  8  4  1  0
  9  5  1  0
 10  8  2  0
 11  1  1  0
 12 11  1  0
  1 13  1  6
 14  7  1  0
 15 14  2  0
 16 13  1  0
 17 15  1  0
 18 24  1  0
 19  9  2  0
  5 20  1  1
 21 16  2  0
  6 22  1  6
 23 18  2  0
 24 28  1  0
  3 25  1  0
  3 26  1  0
 27 16  1  0
 28 15  1  0
 29 10  1  0
 30 27  1  0
 12 31  1  6
 32 18  1  0
 33 30  1  0
 34 30  2  0
 35 34  1  0
 36 33  2  0
 37 35  2  0
  7 38  1  1
  2 39  1  6
  3  2  1  0
  7  6  1  0
 17  5  1  0
  9 10  1  0
 36 37  1  0
M  END

> <chembl_id>
CHEMBL268915

> <chembl_pref_name>
None

$$$$

     RDKit          2D

 75 77  0  0  1  0  0  0  0  0999 V2000
    8.5417   -4.5625    0.0000 N   0  0  0  0  0  0  0  0  0  0  0  0
    7.8292   -4.1417    0.0000 C   0  0  0  0  0  0  0  0  0  0  0  0
    9.4875   -3.4250    0.0000 C   0  0  0  0  0  0  0  0  0  0  0  0
   -1.4833   -4.4750    0.0000 C   0  0  0  0  0  0  0  0  0  0  0  0
   -0.7583   -4.0667    0.0000 C   0  0  0  0  0  0  0  0  0  0  0  0
    5.6792   -4.5375    0.0000 C   0  0  0  0  0  0  0  0  0  0  0  0
   -2.1875   -4.0542    0.0000 N   0  0  0  0  0  0  0  0  0  0  0  0
    6.4000   -4.1292    0.0000 N   0  0  0  0  0  0  0  0  0  0  0  0
    4.2500   -4.5250    0.0000 N   0  0  0  0  0  0  0  0  0  0  0  0
    7.1167   -4.5542    0.0000 C   0  0  0  0  0  0  0  0  0  0  0  0
    9.3042   -4.2292    0.0000 C   0  0  0  0  0  0  0  0  0  0  0  0
   -2.9083   -4.4542    0.0000 C   0  0  0  0  0  0  0  0  0  0  0  0
    3.5375   -4.1042    0.0000 C   0  0  0  0  0  0  0  0  0  0  0  0
   10.2667   -3.1792    0.0000 N   0  0  0  0  0  0  0  0  0  0  0  0
   11.2375   -2.1167    0.0000 C   0  0  0  0  0  0  0  0  0  0  0  0
   10.4500   -2.3750    0.0000 N   0  0  0  0  0  0  0  0  0  0  0  0
    1.3875   -4.5000    0.0000 C   0  0  0  0  0  0  0  0  0  0  0  0
   -0.0458   -4.4792    0.0000 N   0  0  0  0  0  0  0  0  0  0  0  0
    2.1042   -4.0917    0.0000 N   0  0  0  0  0  0  0  0  0  0  0  0
    4.9667   -4.1167    0.0000 C   0  0  0  0  0  0  0  0  0  0  0  0
    2.8167   -4.5042    0.0000 C   0  0  0  0  0  0  0  0  0  0  0  0
   -3.6250   -4.0417    0.0000 C   0  0  0  0  0  0  0  0  0  0  0  0
    2.8125   -5.3375    0.0000 C   0  0  0  0  0  0  0  0  0  0  0  0
   -3.6208   -3.2167    0.0000 C   0  0  0  0  0  0  0  0  0  0  0  0
   -4.3458   -4.4417    0.0000 N   0  0  0  0  0  0  0  0  0  0  0  0
    0.6667   -4.0792    0.0000 C   0  0  0  0  0  0  0  0  0  0  0  0
   -2.8958   -2.8042    0.0000 C   0  0  0  0  0  0  0  0  0  0  0  0
    3.5250   -5.7542    0.0000 C   0  0  0  0  0  0  0  0  0  0  0  0
   -4.3500   -5.2750    0.0000 C   0  0  0  0  0  0  0  0  0  0  0  0
   11.7667   -1.4875    0.0000 C   0  0  0  0  0  0  0  0  0  0  0  0
    7.8417   -3.3167    0.0000 O   0  0  0  0  0  0  0  0  0  0  0  0
    8.8750   -2.8667    0.0000 O   0  0  0  0  0  0  0  0  0  0  0  0
    1.4042   -2.0167    0.0000 C   0  0  0  0  0  0  0  0  0  0  0  0
   -0.7500   -3.2375    0.0000 O   0  0  0  0  0  0  0  0  0  0  0  0
    5.6750   -5.3625    0.0000 O   0  0  0  0  0  0  0  0  0  0  0  0
   11.5167   -2.8917    0.0000 O   0  0  0  0  0  0  0  0  0  0  0  0
    3.5417   -3.2792    0.0000 O   0  0  0  0  0  0  0  0  0  0  0  0
   -2.9208   -5.2875    0.0000 O   0  0  0  0  0  0  0  0  0  0  0  0
    1.3792   -5.3250    0.0000 O   0  0  0  0  0  0  0  0  0  0  0  0
   12.8292   -0.2292    0.0000 C   0  0  0  0  0  0  0  0  0  0  0  0
   -1.4875   -5.3000    0.0000 C   0  0  0  0  0  0  0  0  0  0  0  0
    3.5167   -6.5875    0.0000 O   0  0  0  0  0  0  0  0  0  0  0  0
   -2.8958   -1.9792    0.0000 O   0  0  0  0  0  0  0  0  0  0  0  0
   -5.0708   -5.6792    0.0000 O   0  0  0  0  0  0  0  0  0  0  0  0
    2.1292   -1.6125    0.0000 O   0  0  0  0  0  0  0  0  0  0  0  0
   12.5792   -1.6417    0.0000 C   0  0  0  0  0  0  0  0  0  0  0  0
   11.4875   -0.7167    0.0000 C   0  0  0  0  0  0  0  0  0  0  0  0
   12.0167   -0.0875    0.0000 C   0  0  0  0  0  0  0  0  0  0  0  0
   13.1125   -1.0042    0.0000 C   0  0  0  0  0  0  0  0  0  0  0  0
    0.6792   -3.2542    0.0000 C   0  0  0  0  0  0  0  0  0  0  0  0
   13.3625    0.4000    0.0000 C   0  0  0  0  0  0  0  0  0  0  0  0
    7.1042   -5.3792    0.0000 C   0  0  0  0  0  0  0  0  0  0  0  0
    8.6292   -5.3792    0.0000 C   0  0  0  0  0  0  0  0  0  0  0  0
    4.9792   -3.2917    0.0000 C   0  0  0  0  0  0  0  0  0  0  0  0
    1.4042   -2.8417    0.0000 C   0  0  0  0  0  0  0  0  0  0  0  0
   -2.1833   -3.2250    0.0000 O   0  0  0  0  0  0  0  0  0  0  0  0
    4.2417   -5.3542    0.0000 O   0  0  0  0  0  0  0  0  0  0  0  0
    0.6917   -1.6000    0.0000 O   0  0  0  0  0  0  0  0  0  0  0  0
    9.8542   -4.8542    0.0000 C   0  0  0  0  0  0  0  0  0  0  0  0
   -0.7750   -5.7167    0.0000 O   0  0  0  0  0  0  0  0  0  0  0  0
    9.8417   -1.8167    0.0000 C   0  0  0  0  0  0  0  0  0  0  0  0
    9.4292   -5.5667    0.0000 C   0  0  0  0  0  0  0  0  0  0  0  0
   -3.6375   -5.6917    0.0000 C   0  0  0  0  0  0  0  0  0  0  0  0
   14.1667    0.2583    0.0000 C   0  0  0  0  0  0  0  0  0  0  0  0
   13.0792    1.1708    0.0000 C   0  0  0  0  0  0  0  0  0  0  0  0
   -2.2083   -5.7042    0.0000 C   0  0  0  0  0  0  0  0  0  0  0  0
    7.8167   -5.7917    0.0000 C   0  0  0  0  0  0  0  0  0  0  0  0
    6.3875   -5.7792    0.0000 C   0  0  0  0  0  0  0  0  0  0  0  0
    4.2667   -2.8667    0.0000 C   0  0  0  0  0  0  0  0  0  0  0  0
    5.7000   -2.8792    0.0000 C   0  0  0  0  0  0  0  0  0  0  0  0
   10.0167   -1.0042    0.0000 C   0  0  0  0  0  0  0  0  0  0  0  0
    9.4125   -0.4542    0.0000 C   0  0  0  0  0  0  0  0  0  0  0  0
   14.7042    0.8833    0.0000 C   0  0  0  0  0  0  0  0  0  0  0  0
   13.6042    1.8083    0.0000 C   0  0  0  0  0  0  0  0  0  0  0  0
   14.4167    1.6583    0.0000 C   0  0  0  0  0  0  0  0  0  0  0  0
  2  1  1  0
 11  3  1  1
  4  5  1  0
  5 18  1  0
  6  8  1  0
  4  7  1  6
 10  8  1  6
 20  9  1  1
 10  2  1  0
 11  1  1  0
 12  7  1  0
 13  9  1  0
 14  3  1  0
 15 16  1  0
 16 14  1  0
 17 19  1  0
 26 18  1  1
 21 19  1  6
 20  6  1  0
 21 13  1  0
 22 12  1  0
 21 23  1  0
 22 24  1  1
 25 22  1  0
 26 17  1  0
 27 24  1  0
 28 23  1  0
 29 25  1  0
 30 15  1  0
 31  2  2  0
 32  3  2  0
 33 55  1  0
 34  5  2  0
 35  6  2  0
 36 15  2  0
 37 13  2  0
 38 12  2  0
 39 17  2  0
 40 48  1  0
  4 41  1  0
 42 28  2  0
 43 27  2  0
 44 29  2  0
 45 33  2  0
 46 30  2  0
 47 30  1  0
 48 47  2  0
 49 46  1  0
 26 50  1  0
 51 40  1  0
 10 52  1  0
 53  1  1  0
 20 54  1  0
 55 50  1  0
 56 27  1  0
 57 28  1  0
 58 33  1  0
 11 59  1  0
 41 60  1  6
 61 16  1  0
 62 53  1  0
 63 29  1  0
 64 51  2  0
 65 51  1  0
 66 41  1  0
 67 52  1  0
 68 52  1  0
 69 54  1  0
 70 54  1  0
 71 61  1  0
 72 71  1  0
 73 64  1  0
 74 65  2  0
 75 74  1  0
 59 62  1  0
 49 40  2  0
 75 73  2  0
M  END

> <chembl_id>
CHEMBL386851

> <chembl_pref_name>
None

$$$$

     RDKit          2D

 80 82  0  0  1  0  0  0  0  0999 V2000
    8.2167   -4.8417    0.0000 N   0  0  0  0  0  0  0  0  0  0  0  0
    7.5417   -4.4625    0.0000 C   0  0  0  0  0  0  0  0  0  0  0  0
    9.1042   -3.8167    0.0000 C   0  0  0  0  0  0  0  0  0  0  0  0
   -1.2583   -4.7667    0.0000 C   0  0  0  0  0  0  0  0  0  0  0  0
   16.2292   -0.0167    0.0000 N   0  0  0  0  0  0  0  0  0  0  0  0
   -0.5708   -4.3917    0.0000 C   0  0  0  0  0  0  0  0  0  0  0  0
    5.5125   -4.8167    0.0000 C   0  0  0  0  0  0  0  0  0  0  0  0
   -1.9208   -4.3792    0.0000 N   0  0  0  0  0  0  0  0  0  0  0  0
    6.1917   -4.4542    0.0000 N   0  0  0  0  0  0  0  0  0  0  0  0
    4.1542   -4.8125    0.0000 N   0  0  0  0  0  0  0  0  0  0  0  0
    6.8667   -4.8375    0.0000 C   0  0  0  0  0  0  0  0  0  0  0  0
    8.9292   -4.5417    0.0000 C   0  0  0  0  0  0  0  0  0  0  0  0
   -2.6083   -4.7500    0.0000 C   0  0  0  0  0  0  0  0  0  0  0  0
    3.4875   -4.4292    0.0000 C   0  0  0  0  0  0  0  0  0  0  0  0
    9.8417   -3.5917    0.0000 N   0  0  0  0  0  0  0  0  0  0  0  0
   10.7542   -2.6292    0.0000 C   0  0  0  0  0  0  0  0  0  0  0  0
   10.0167   -2.8667    0.0000 N   0  0  0  0  0  0  0  0  0  0  0  0
    1.4542   -4.7875    0.0000 C   0  0  0  0  0  0  0  0  0  0  0  0
    0.0917   -4.7667    0.0000 N   0  0  0  0  0  0  0  0  0  0  0  0
    2.1292   -4.4167    0.0000 N   0  0  0  0  0  0  0  0  0  0  0  0
    4.8417   -4.4417    0.0000 C   0  0  0  0  0  0  0  0  0  0  0  0
    2.8042   -4.8000    0.0000 C   0  0  0  0  0  0  0  0  0  0  0  0
   -3.2833   -4.3750    0.0000 C   0  0  0  0  0  0  0  0  0  0  0  0
    2.8000   -5.5417    0.0000 C   0  0  0  0  0  0  0  0  0  0  0  0
   -3.2750   -3.6250    0.0000 C   0  0  0  0  0  0  0  0  0  0  0  0
   -3.9583   -4.7417    0.0000 N   0  0  0  0  0  0  0  0  0  0  0  0
    0.7792   -4.4042    0.0000 C   0  0  0  0  0  0  0  0  0  0  0  0
   12.6292   -0.1542    0.0000 N   0  0  0  0  0  0  0  0  0  0  0  0
   13.1875    0.2583    0.0000 N   0  0  0  0  0  0  0  0  0  0  0  0
    3.4750   -5.9250    0.0000 C   0  0  0  0  0  0  0  0  0  0  0  0
   -2.5958   -3.2542    0.0000 C   0  0  0  0  0  0  0  0  0  0  0  0
   15.4667    0.0458    0.0000 C   0  0  0  0  0  0  0  0  0  0  0  0
   -3.9708   -5.4875    0.0000 C   0  0  0  0  0  0  0  0  0  0  0  0
   16.5250   -0.7042    0.0000 O   0  0  0  0  0  0  0  0  0  0  0  0
   11.2292   -2.0042    0.0000 C   0  0  0  0  0  0  0  0  0  0  0  0
    7.5542   -3.7167    0.0000 O   0  0  0  0  0  0  0  0  0  0  0  0
   16.6917    0.6000    0.0000 O   0  0  0  0  0  0  0  0  0  0  0  0
    8.5292   -3.3125    0.0000 O   0  0  0  0  0  0  0  0  0  0  0  0
    1.4750   -2.5417    0.0000 C   0  0  0  0  0  0  0  0  0  0  0  0
   -0.5708   -3.6417    0.0000 O   0  0  0  0  0  0  0  0  0  0  0  0
    5.5042   -5.5667    0.0000 O   0  0  0  0  0  0  0  0  0  0  0  0
   11.0500   -3.3167    0.0000 O   0  0  0  0  0  0  0  0  0  0  0  0
   -2.6125   -5.5000    0.0000 O   0  0  0  0  0  0  0  0  0  0  0  0
    3.4917   -3.6792    0.0000 O   0  0  0  0  0  0  0  0  0  0  0  0
    1.4417   -5.5292    0.0000 O   0  0  0  0  0  0  0  0  0  0  0  0
   -1.2625   -5.5125    0.0000 C   0  0  0  0  0  0  0  0  0  0  0  0
   -2.5875   -2.5042    0.0000 O   0  0  0  0  0  0  0  0  0  0  0  0
    3.4667   -6.6750    0.0000 O   0  0  0  0  0  0  0  0  0  0  0  0
   -4.6458   -5.8542    0.0000 O   0  0  0  0  0  0  0  0  0  0  0  0
    2.1542   -2.1750    0.0000 O   0  0  0  0  0  0  0  0  0  0  0  0
    0.7875   -3.6625    0.0000 C   0  0  0  0  0  0  0  0  0  0  0  0
   14.9917   -0.5750    0.0000 C   0  0  0  0  0  0  0  0  0  0  0  0
   15.1667    0.7375    0.0000 C   0  0  0  0  0  0  0  0  0  0  0  0
   10.9375   -1.3292    0.0000 C   0  0  0  0  0  0  0  0  0  0  0  0
   11.9917   -2.0875    0.0000 C   0  0  0  0  0  0  0  0  0  0  0  0
   13.9500    0.1833    0.0000 C   0  0  0  0  0  0  0  0  0  0  0  0
   12.1667   -0.7792    0.0000 C   0  0  0  0  0  0  0  0  0  0  0  0
    6.8542   -5.5792    0.0000 C   0  0  0  0  0  0  0  0  0  0  0  0
    8.2917   -5.5875    0.0000 C   0  0  0  0  0  0  0  0  0  0  0  0
    4.8417   -3.6917    0.0000 C   0  0  0  0  0  0  0  0  0  0  0  0
    1.4667   -3.2875    0.0000 C   0  0  0  0  0  0  0  0  0  0  0  0
   -1.9208   -3.6292    0.0000 O   0  0  0  0  0  0  0  0  0  0  0  0
    4.1542   -5.5625    0.0000 O   0  0  0  0  0  0  0  0  0  0  0  0
    0.8000   -2.1667    0.0000 O   0  0  0  0  0  0  0  0  0  0  0  0
   14.2292   -0.5042    0.0000 C   0  0  0  0  0  0  0  0  0  0  0  0
   11.4000   -0.7042    0.0000 C   0  0  0  0  0  0  0  0  0  0  0  0
   14.4125    0.8000    0.0000 C   0  0  0  0  0  0  0  0  0  0  0  0
   12.4625   -1.4667    0.0000 C   0  0  0  0  0  0  0  0  0  0  0  0
    9.4542   -5.1042    0.0000 C   0  0  0  0  0  0  0  0  0  0  0  0
   -0.5875   -5.8917    0.0000 O   0  0  0  0  0  0  0  0  0  0  0  0
    9.4417   -2.3625    0.0000 C   0  0  0  0  0  0  0  0  0  0  0  0
    9.0542   -5.7542    0.0000 C   0  0  0  0  0  0  0  0  0  0  0  0
   -3.2958   -5.8667    0.0000 C   0  0  0  0  0  0  0  0  0  0  0  0
   -1.9458   -5.8792    0.0000 C   0  0  0  0  0  0  0  0  0  0  0  0
    7.5292   -5.9542    0.0000 C   0  0  0  0  0  0  0  0  0  0  0  0
    6.1792   -5.9500    0.0000 C   0  0  0  0  0  0  0  0  0  0  0  0
    4.1750   -3.3125    0.0000 C   0  0  0  0  0  0  0  0  0  0  0  0
    5.5292   -3.3250    0.0000 C   0  0  0  0  0  0  0  0  0  0  0  0
    9.6125   -1.6292    0.0000 C   0  0  0  0  0  0  0  0  0  0  0  0
    9.0375   -1.1292    0.0000 C   0  0  0  0  0  0  0  0  0  0  0  0
  2  1  1  0
 12  3  1  1
  4  6  1  0
  5 32  1  0
  6 19  1  0
  7  9  1  0
  4  8  1  6
 11  9  1  6
 21 10  1  1
 11  2  1  0
 12  1  1  0
 13  8  1  0
 14 10  1  0
 15  3  1  0
 16 17  1  0
 17 15  1  0
 18 20  1  0
 27 19  1  1
 22 20  1  6
 21  7  1  0
 22 14  1  0
 23 13  1  0
 22 24  1  0
 23 25  1  1
 26 23  1  0
 27 18  1  0
 28 57  1  0
 29 28  2  0
 30 24  1  0
 31 25  1  0
 32 53  1  0
 33 26  1  0
 34  5  1  0
 35 16  1  0
 36  2  2  0
 37  5  2  0
 38  3  2  0
 39 61  1  0
 40  6  2  0
 41  7  2  0
 42 16  2  0
 43 13  2  0
 44 14  2  0
 45 18  2  0
  4 46  1  0
 47 31  2  0
 48 30  2  0
 49 33  2  0
 50 39  2  0
 27 51  1  0
 52 65  1  0
 53 67  2  0
 54 35  1  0
 55 35  2  0
 56 29  1  0
 57 68  2  0
 11 58  1  0
 59  1  1  0
 21 60  1  0
 61 51  1  0
 62 31  1  0
 63 30  1  0
 64 39  1  0
 65 56  2  0
 66 54  2  0
 67 56  1  0
 68 55  1  0
 12 69  1  0
 46 70  1  6
 71 17  1  0
 72 59  1  0
 73 33  1  0
 74 46  1  0
 75 58  1  0
 76 58  1  0
 77 60  1  0
 78 60  1  0
 79 71  1  0
 80 79  1  0
 69 72  1  0
 66 57  1  0
 32 52  2  0
M  CHG  2   5   1  34  -1
M  END

> <chembl_id>
CHEMBL383935

> <chembl_pref_name>
None

$$$$

     RDKit          2D

 73 74  0  0  1  0  0  0  0  0999 V2000
    9.6417   -3.8750    0.0000 N   0  0  0  0  0  0  0  0  0  0  0  0
   14.3750    1.1500    0.0000 S   0  0  0  0  0  0  0  0  0  0  0  0
    8.9292   -3.4542    0.0000 C   0  0  0  0  0  0  0  0  0  0  0  0
   10.5792   -2.7375    0.0000 C   0  0  0  0  0  0  0  0  0  0  0  0
   -0.3833   -3.7875    0.0000 C   0  0  0  0  0  0  0  0  0  0  0  0
    0.3417   -3.3792    0.0000 C   0  0  0  0  0  0  0  0  0  0  0  0
    6.7792   -3.8500    0.0000 C   0  0  0  0  0  0  0  0  0  0  0  0
   -1.0958   -3.3667    0.0000 N   0  0  0  0  0  0  0  0  0  0  0  0
    7.4917   -3.4417    0.0000 N   0  0  0  0  0  0  0  0  0  0  0  0
    5.3417   -3.8375    0.0000 N   0  0  0  0  0  0  0  0  0  0  0  0
    8.2125   -3.8667    0.0000 C   0  0  0  0  0  0  0  0  0  0  0  0
   10.3917   -3.5417    0.0000 C   0  0  0  0  0  0  0  0  0  0  0  0
   -1.8125   -3.7667    0.0000 C   0  0  0  0  0  0  0  0  0  0  0  0
    4.6292   -3.4167    0.0000 C   0  0  0  0  0  0  0  0  0  0  0  0
   11.3667   -2.4917    0.0000 N   0  0  0  0  0  0  0  0  0  0  0  0
   12.3292   -1.4375    0.0000 C   0  0  0  0  0  0  0  0  0  0  0  0
   11.5417   -1.6875    0.0000 N   0  0  0  0  0  0  0  0  0  0  0  0
    2.4792   -3.8125    0.0000 C   0  0  0  0  0  0  0  0  0  0  0  0
    1.0500   -3.7917    0.0000 N   0  0  0  0  0  0  0  0  0  0  0  0
    3.2000   -3.4042    0.0000 N   0  0  0  0  0  0  0  0  0  0  0  0
    6.0667   -3.4292    0.0000 C   0  0  0  0  0  0  0  0  0  0  0  0
    3.9167   -3.8250    0.0000 C   0  0  0  0  0  0  0  0  0  0  0  0
   -2.5333   -3.3542    0.0000 C   0  0  0  0  0  0  0  0  0  0  0  0
    3.9042   -4.6500    0.0000 C   0  0  0  0  0  0  0  0  0  0  0  0
   -2.5208   -2.5292    0.0000 C   0  0  0  0  0  0  0  0  0  0  0  0
   -3.2458   -3.7625    0.0000 N   0  0  0  0  0  0  0  0  0  0  0  0
   13.8625    0.5000    0.0000 C   0  0  0  0  0  0  0  0  0  0  0  0
    1.7667   -3.3917    0.0000 C   0  0  0  0  0  0  0  0  0  0  0  0
    4.6167   -5.0667    0.0000 C   0  0  0  0  0  0  0  0  0  0  0  0
   -1.8000   -2.1167    0.0000 C   0  0  0  0  0  0  0  0  0  0  0  0
   13.7292    1.6625    0.0000 O   0  0  0  0  0  0  0  0  0  0  0  0
   14.8792    1.7958    0.0000 O   0  0  0  0  0  0  0  0  0  0  0  0
   -3.2583   -4.5875    0.0000 C   0  0  0  0  0  0  0  0  0  0  0  0
   12.8417   -0.7875    0.0000 C   0  0  0  0  0  0  0  0  0  0  0  0
    8.9375   -2.6292    0.0000 O   0  0  0  0  0  0  0  0  0  0  0  0
    9.9667   -2.1792    0.0000 O   0  0  0  0  0  0  0  0  0  0  0  0
    2.5042   -1.3292    0.0000 C   0  0  0  0  0  0  0  0  0  0  0  0
    0.3417   -2.5500    0.0000 O   0  0  0  0  0  0  0  0  0  0  0  0
    6.7667   -4.6750    0.0000 O   0  0  0  0  0  0  0  0  0  0  0  0
   15.0250    0.6375    0.0000 F   0  0  0  0  0  0  0  0  0  0  0  0
   12.6292   -2.2042    0.0000 O   0  0  0  0  0  0  0  0  0  0  0  0
    4.6417   -2.5917    0.0000 O   0  0  0  0  0  0  0  0  0  0  0  0
   -1.8208   -4.6000    0.0000 O   0  0  0  0  0  0  0  0  0  0  0  0
    2.4750   -4.6375    0.0000 O   0  0  0  0  0  0  0  0  0  0  0  0
   -0.3958   -4.6125    0.0000 C   0  0  0  0  0  0  0  0  0  0  0  0
    4.6125   -5.9000    0.0000 O   0  0  0  0  0  0  0  0  0  0  0  0
   -1.7958   -1.2917    0.0000 O   0  0  0  0  0  0  0  0  0  0  0  0
   -3.9708   -4.9917    0.0000 O   0  0  0  0  0  0  0  0  0  0  0  0
    3.2250   -0.9250    0.0000 O   0  0  0  0  0  0  0  0  0  0  0  0
   14.1667   -0.2667    0.0000 C   0  0  0  0  0  0  0  0  0  0  0  0
   13.0417    0.6208    0.0000 C   0  0  0  0  0  0  0  0  0  0  0  0
   13.6542   -0.9167    0.0000 C   0  0  0  0  0  0  0  0  0  0  0  0
   12.5375   -0.0292    0.0000 C   0  0  0  0  0  0  0  0  0  0  0  0
    1.7792   -2.5667    0.0000 C   0  0  0  0  0  0  0  0  0  0  0  0
    8.2042   -4.6917    0.0000 C   0  0  0  0  0  0  0  0  0  0  0  0
    9.7250   -4.6917    0.0000 C   0  0  0  0  0  0  0  0  0  0  0  0
    6.0750   -2.6042    0.0000 C   0  0  0  0  0  0  0  0  0  0  0  0
    2.5000   -2.1542    0.0000 C   0  0  0  0  0  0  0  0  0  0  0  0
    5.3417   -4.6667    0.0000 O   0  0  0  0  0  0  0  0  0  0  0  0
   -1.0875   -2.5375    0.0000 O   0  0  0  0  0  0  0  0  0  0  0  0
    1.7917   -0.9125    0.0000 O   0  0  0  0  0  0  0  0  0  0  0  0
   10.9500   -4.1667    0.0000 C   0  0  0  0  0  0  0  0  0  0  0  0
    0.3167   -5.0292    0.0000 O   0  0  0  0  0  0  0  0  0  0  0  0
   10.9375   -1.1292    0.0000 C   0  0  0  0  0  0  0  0  0  0  0  0
   10.5292   -4.8792    0.0000 C   0  0  0  0  0  0  0  0  0  0  0  0
   -2.5458   -5.0042    0.0000 C   0  0  0  0  0  0  0  0  0  0  0  0
   -1.1125   -5.0167    0.0000 C   0  0  0  0  0  0  0  0  0  0  0  0
    7.4792   -5.0917    0.0000 C   0  0  0  0  0  0  0  0  0  0  0  0
    8.9167   -5.1042    0.0000 C   0  0  0  0  0  0  0  0  0  0  0  0
    6.7917   -2.1917    0.0000 C   0  0  0  0  0  0  0  0  0  0  0  0
    5.3625   -2.1792    0.0000 C   0  0  0  0  0  0  0  0  0  0  0  0
   11.1167   -0.3167    0.0000 C   0  0  0  0  0  0  0  0  0  0  0  0
   10.5042    0.2333    0.0000 C   0  0  0  0  0  0  0  0  0  0  0  0
  2 27  1  0
  3  1  1  0
 12  4  1  1
  5  6  1  0
  6 19  1  0
  7  9  1  0
  5  8  1  6
 11  9  1  6
 21 10  1  1
 11  3  1  0
 12  1  1  0
 13  8  1  0
 14 10  1  0
 15  4  1  0
 16 17  1  0
 17 15  1  0
 18 20  1  0
 28 19  1  1
 22 20  1  6
 21  7  1  0
 22 14  1  0
 23 13  1  0
 22 24  1  0
 23 25  1  1
 26 23  1  0
 27 51  1  0
 28 18  1  0
 29 24  1  0
 30 25  1  0
 31  2  2  0
 32  2  2  0
 33 26  1  0
 34 16  1  0
 35  3  2  0
 36  4  2  0
 37 58  1  0
 38  6  2  0
 39  7  2  0
 40  2  1  0
 41 16  2  0
 42 14  2  0
 43 13  2  0
 44 18  2  0
  5 45  1  0
 46 29  2  0
 47 30  2  0
 48 33  2  0
 49 37  2  0
 50 52  1  0
 51 53  2  0
 52 34  2  0
 53 34  1  0
 28 54  1  0
 11 55  1  0
 56  1  1  0
 21 57  1  0
 58 54  1  0
 59 29  1  0
 60 30  1  0
 61 37  1  0
 12 62  1  0
 45 63  1  6
 64 17  1  0
 65 56  1  0
 66 33  1  0
 67 45  1  0
 68 55  1  0
 69 55  1  0
 70 57  1  0
 71 57  1  0
 72 64  1  0
 73 72  1  0
 62 65  1  0
 50 27  2  0
M  END

> <chembl_id>
CHEMBL426151

> <chembl_pref_name>
None

$$$$

     RDKit          2D

 65 71  0  0  1  0  0  0  0  0999 V2000
    4.4792   -3.4125    0.0000 C   0  0  0  0  0  0  0  0  0  0  0  0
    3.7292   -3.8042    0.0000 S   0  0  0  0  0  0  0  0  0  0  0  0
    5.2000   -3.8625    0.0000 N   0  0  0  0  0  0  0  0  0  0  0  0
    5.6500   -3.1417    0.0000 C   0  0  0  0  0  0  0  0  0  0  0  0
    4.9292   -2.6917    0.0000 C   0  0  0  0  0  0  0  0  0  0  0  0
   -1.2458   -1.7000    0.0000 C   0  0  0  0  0  0  0  0  0  0  0  0
   -1.2458   -2.5167    0.0000 C   0  0  0  0  0  0  0  0  0  0  0  0
    5.1667   -4.7167    0.0000 C   0  0  0  0  0  0  0  0  0  0  0  0
    4.4125   -5.1125    0.0000 C   0  0  0  0  0  0  0  0  0  0  0  0
   -1.9583   -2.9375    0.0000 C   0  0  0  0  0  0  0  0  0  0  0  0
   -1.9583   -1.2917    0.0000 C   0  0  0  0  0  0  0  0  0  0  0  0
    0.1875   -2.5167    0.0000 C   0  0  0  0  0  0  0  0  0  0  0  0
    0.1875   -1.7000    0.0000 C   0  0  0  0  0  0  0  0  0  0  0  0
   -2.6833   -2.5167    0.0000 C   0  0  0  0  0  0  0  0  0  0  0  0
   -0.5333   -1.2917    0.0000 C   0  0  0  0  0  0  0  0  0  0  0  0
   -0.5333   -2.9375    0.0000 C   0  0  0  0  0  0  0  0  0  0  0  0
   -2.6833   -1.7000    0.0000 C   0  0  0  0  0  0  0  0  0  0  0  0
    5.8875   -5.1667    0.0000 C   0  0  0  0  0  0  0  0  0  0  0  0
    1.6125   -1.7000    0.0000 C   0  0  0  0  0  0  0  0  0  0  0  0
    3.6917   -4.6542    0.0000 C   0  0  0  0  0  0  0  0  0  0  0  0
    0.9042   -2.9375    0.0000 C   0  0  0  0  0  0  0  0  0  0  0  0
    1.5917   -5.8167    0.0000 C   0  0  0  0  0  0  0  0  0  0  0  0
    0.9042   -1.2917    0.0000 C   0  0  0  0  0  0  0  0  0  0  0  0
    0.8875   -4.5792    0.0000 C   0  0  0  0  0  0  0  0  0  0  0  0
    1.6042   -5.0000    0.0000 C   0  0  0  0  0  0  0  0  0  0  0  0
    0.1750   -4.9792    0.0000 O   0  0  0  0  0  0  0  0  0  0  0  0
    1.6125   -2.5167    0.0000 C   0  0  0  0  0  0  0  0  0  0  0  0
    0.8792   -6.2250    0.0000 C   0  0  0  0  0  0  0  0  0  0  0  0
    3.0167   -5.8292    0.0000 C   0  0  0  0  0  0  0  0  0  0  0  0
    2.3042   -6.2375    0.0000 N   0  0  0  0  0  0  0  0  0  0  0  0
    0.1750   -5.8125    0.0000 C   0  0  0  0  0  0  0  0  0  0  0  0
    3.6542   -2.9875    0.0000 O   0  0  0  0  0  0  0  0  0  0  0  0
    2.9250   -4.2750    0.0000 O   0  0  0  0  0  0  0  0  0  0  0  0
    2.0167   -0.9917    0.0000 C   0  0  0  0  0  0  0  0  0  0  0  0
    0.8917   -3.7542    0.0000 O   0  0  0  0  0  0  0  0  0  0  0  0
    6.6417   -4.7667    0.0000 O   0  0  0  0  0  0  0  0  0  0  0  0
    4.3750   -5.8917    0.0000 C   0  0  0  0  0  0  0  0  0  0  0  0
    6.4792   -2.9542    0.0000 O   0  0  0  0  0  0  0  0  0  0  0  0
   -1.9583   -0.4542    0.0000 O   0  0  0  0  0  0  0  0  0  0  0  0
   -1.9583   -3.7625    0.0000 O   0  0  0  0  0  0  0  0  0  0  0  0
   -3.3875   -2.9375    0.0000 C   0  0  0  0  0  0  0  0  0  0  0  0
    5.8542   -6.0167    0.0000 O   0  0  0  0  0  0  0  0  0  0  0  0
    5.2917   -2.0792    0.0000 Cl  0  0  0  0  0  0  0  0  0  0  0  0
    3.6792   -6.2500    0.0000 O   0  0  0  0  0  0  0  0  0  0  0  0
    3.0417   -5.0042    0.0000 O   0  0  0  0  0  0  0  0  0  0  0  0
    1.4417   -0.4042    0.0000 O   0  0  0  0  0  0  0  0  0  0  0  0
    7.3667   -5.2250    0.0000 C   0  0  0  0  0  0  0  0  0  0  0  0
   -0.5458   -0.4750    0.0000 O   0  0  0  0  0  0  0  0  0  0  0  0
   -0.5333   -3.7542    0.0000 O   0  0  0  0  0  0  0  0  0  0  0  0
    2.3167   -2.1000    0.0000 O   0  0  0  0  0  0  0  0  0  0  0  0
    0.8667   -7.0417    0.0000 O   0  0  0  0  0  0  0  0  0  0  0  0
   -3.3875   -1.2917    0.0000 C   0  0  0  0  0  0  0  0  0  0  0  0
   -3.3958   -3.7542    0.0000 O   0  0  0  0  0  0  0  0  0  0  0  0
    2.8292   -0.8792    0.0000 C   0  0  0  0  0  0  0  0  0  0  0  0
    3.3250   -1.5292    0.0000 O   0  0  0  0  0  0  0  0  0  0  0  0
   -0.5500   -6.2250    0.0000 C   0  0  0  0  0  0  0  0  0  0  0  0
   -4.1083   -1.7000    0.0000 C   0  0  0  0  0  0  0  0  0  0  0  0
   -4.1083   -2.5167    0.0000 C   0  0  0  0  0  0  0  0  0  0  0  0
    8.0875   -5.6750    0.0000 C   0  0  0  0  0  0  0  0  0  0  0  0
    8.0417   -4.7167    0.0000 C   0  0  0  0  0  0  0  0  0  0  0  0
    7.3042   -5.8917    0.0000 C   0  0  0  0  0  0  0  0  0  0  0  0
   -4.1125   -4.1792    0.0000 C   0  0  0  0  0  0  0  0  0  0  0  0
    5.9007   -2.4548    0.0000 H   0  0  0  0  0  0  0  0  0  0  0  0
    1.7695   -3.4387    0.0000 H   0  0  0  0  0  0  0  0  0  0  0  0
    3.7998   -2.6788    0.0000 H   0  0  0  0  0  0  0  0  0  0  0  0
  1  2  1  0
  3  1  1  0
  4  5  1  0
  5  1  1  0
  6  7  2  0
  7 16  1  0
  8  3  1  0
  9  8  2  0
 10  7  1  0
 11  6  1  0
 12 21  1  0
 13 12  1  0
 14 10  1  0
 15 13  2  0
 16 12  2  0
 17 14  2  0
 18  8  1  0
 19 27  1  0
 20  2  1  0
 21 35  1  0
 22 30  1  6
 23 19  1  0
 24 25  1  0
 25 22  1  0
 26 31  1  0
 27 21  1  0
 28 22  1  0
 29 44  1  0
 30 29  1  0
 31 28  1  0
 32  2  2  0
 33  2  2  0
 19 34  1  0
 24 35  1  1
 36 18  1  0
 37  9  1  0
 38  4  2  0
 39 11  2  0
 40 10  2  0
 41 14  1  0
 42 18  2  0
  5 43  1  0
 44 37  1  0
 45 29  2  0
 46 34  2  0
 47 36  1  0
 48 15  1  0
 49 16  1  0
 19 50  1  6
 28 51  1  1
 52 17  1  0
 53 41  1  0
 54 34  1  0
 55 54  1  0
 31 56  1  6
 57 58  1  0
 58 41  2  0
 59 47  1  0
 60 47  1  0
 61 47  1  0
 62 53  1  0
  5 63  1  1
 21 64  1  1
  4  3  1  0
  9 20  1  0
 26 24  1  0
 23 13  1  0
 15  6  1  0
 11 17  1  0
 57 52  2  0
  1 65  1  6
M  END

> <chembl_id>
CHEMBL268413

> <chembl_pref_name>
None

$$$$

     RDKit          2D

 70 71  0  0  1  0  0  0  0  0999 V2000
    9.5125   -4.5625    0.0000 N   0  0  0  0  0  0  0  0  0  0  0  0
    8.8000   -4.1417    0.0000 C   0  0  0  0  0  0  0  0  0  0  0  0
   10.4542   -3.4250    0.0000 C   0  0  0  0  0  0  0  0  0  0  0  0
   -0.5125   -4.4750    0.0000 C   0  0  0  0  0  0  0  0  0  0  0  0
    0.2125   -4.0667    0.0000 C   0  0  0  0  0  0  0  0  0  0  0  0
   12.2042   -2.1167    0.0000 C   0  0  0  0  0  0  0  0  0  0  0  0
    6.6500   -4.5375    0.0000 C   0  0  0  0  0  0  0  0  0  0  0  0
   -1.2208   -4.0542    0.0000 N   0  0  0  0  0  0  0  0  0  0  0  0
    7.3667   -4.1292    0.0000 N   0  0  0  0  0  0  0  0  0  0  0  0
    5.2167   -4.5250    0.0000 N   0  0  0  0  0  0  0  0  0  0  0  0
    8.0792   -4.5542    0.0000 C   0  0  0  0  0  0  0  0  0  0  0  0
   10.2667   -4.2292    0.0000 C   0  0  0  0  0  0  0  0  0  0  0  0
   -1.9458   -4.4542    0.0000 C   0  0  0  0  0  0  0  0  0  0  0  0
    4.5042   -4.1042    0.0000 C   0  0  0  0  0  0  0  0  0  0  0  0
   11.2375   -3.1792    0.0000 N   0  0  0  0  0  0  0  0  0  0  0  0
    2.3542   -4.5000    0.0000 C   0  0  0  0  0  0  0  0  0  0  0  0
    0.9167   -4.4792    0.0000 N   0  0  0  0  0  0  0  0  0  0  0  0
    3.0667   -4.0917    0.0000 N   0  0  0  0  0  0  0  0  0  0  0  0
    5.9375   -4.1167    0.0000 C   0  0  0  0  0  0  0  0  0  0  0  0
    3.7875   -4.5042    0.0000 C   0  0  0  0  0  0  0  0  0  0  0  0
   11.4167   -2.3750    0.0000 N   0  0  0  0  0  0  0  0  0  0  0  0
   -2.6583   -4.0417    0.0000 C   0  0  0  0  0  0  0  0  0  0  0  0
    3.7792   -5.3375    0.0000 C   0  0  0  0  0  0  0  0  0  0  0  0
   -2.6500   -3.2167    0.0000 C   0  0  0  0  0  0  0  0  0  0  0  0
   12.7667   -1.5167    0.0000 S   0  0  0  0  0  0  0  0  0  0  0  0
   -3.3750   -4.4417    0.0000 N   0  0  0  0  0  0  0  0  0  0  0  0
    1.6375   -4.0792    0.0000 C   0  0  0  0  0  0  0  0  0  0  0  0
    4.4917   -5.7542    0.0000 C   0  0  0  0  0  0  0  0  0  0  0  0
   -1.9333   -2.8042    0.0000 C   0  0  0  0  0  0  0  0  0  0  0  0
   -3.3833   -5.2750    0.0000 C   0  0  0  0  0  0  0  0  0  0  0  0
    8.8042   -3.3167    0.0000 O   0  0  0  0  0  0  0  0  0  0  0  0
    9.8417   -2.8667    0.0000 O   0  0  0  0  0  0  0  0  0  0  0  0
    2.3750   -2.0167    0.0000 C   0  0  0  0  0  0  0  0  0  0  0  0
   12.4417   -2.9042    0.0000 O   0  0  0  0  0  0  0  0  0  0  0  0
    0.2167   -3.2375    0.0000 O   0  0  0  0  0  0  0  0  0  0  0  0
    6.6417   -5.3625    0.0000 O   0  0  0  0  0  0  0  0  0  0  0  0
    4.5125   -3.2792    0.0000 O   0  0  0  0  0  0  0  0  0  0  0  0
   -1.9500   -5.2875    0.0000 O   0  0  0  0  0  0  0  0  0  0  0  0
    2.3417   -5.3250    0.0000 O   0  0  0  0  0  0  0  0  0  0  0  0
   -0.5208   -5.3000    0.0000 C   0  0  0  0  0  0  0  0  0  0  0  0
    4.4792   -6.5875    0.0000 O   0  0  0  0  0  0  0  0  0  0  0  0
   -1.9250   -1.9792    0.0000 O   0  0  0  0  0  0  0  0  0  0  0  0
   -4.1000   -5.6792    0.0000 O   0  0  0  0  0  0  0  0  0  0  0  0
    3.0917   -1.6125    0.0000 O   0  0  0  0  0  0  0  0  0  0  0  0
    1.6500   -3.2542    0.0000 C   0  0  0  0  0  0  0  0  0  0  0  0
    8.0750   -5.3792    0.0000 C   0  0  0  0  0  0  0  0  0  0  0  0
    9.5917   -5.3792    0.0000 C   0  0  0  0  0  0  0  0  0  0  0  0
    5.9417   -3.2917    0.0000 C   0  0  0  0  0  0  0  0  0  0  0  0
    2.3667   -2.8417    0.0000 C   0  0  0  0  0  0  0  0  0  0  0  0
   13.5750   -1.7042    0.0000 C   0  0  0  0  0  0  0  0  0  0  0  0
   -1.2208   -3.2250    0.0000 O   0  0  0  0  0  0  0  0  0  0  0  0
    5.2125   -5.3500    0.0000 O   0  0  0  0  0  0  0  0  0  0  0  0
    1.6625   -1.6000    0.0000 O   0  0  0  0  0  0  0  0  0  0  0  0
   10.8167   -4.8542    0.0000 C   0  0  0  0  0  0  0  0  0  0  0  0
    0.1917   -5.7167    0.0000 O   0  0  0  0  0  0  0  0  0  0  0  0
   10.8042   -1.8167    0.0000 C   0  0  0  0  0  0  0  0  0  0  0  0
   10.3917   -5.5667    0.0000 C   0  0  0  0  0  0  0  0  0  0  0  0
   -2.6708   -5.6917    0.0000 C   0  0  0  0  0  0  0  0  0  0  0  0
   -1.2458   -5.7042    0.0000 C   0  0  0  0  0  0  0  0  0  0  0  0
    7.3542   -5.7792    0.0000 C   0  0  0  0  0  0  0  0  0  0  0  0
    8.7875   -5.7917    0.0000 C   0  0  0  0  0  0  0  0  0  0  0  0
    6.6667   -2.8792    0.0000 C   0  0  0  0  0  0  0  0  0  0  0  0
    5.2292   -2.8667    0.0000 C   0  0  0  0  0  0  0  0  0  0  0  0
   13.8042   -2.5000    0.0000 C   0  0  0  0  0  0  0  0  0  0  0  0
   14.1292   -1.1125    0.0000 C   0  0  0  0  0  0  0  0  0  0  0  0
   10.9875   -1.0042    0.0000 C   0  0  0  0  0  0  0  0  0  0  0  0
   10.3792   -0.4542    0.0000 C   0  0  0  0  0  0  0  0  0  0  0  0
   14.9292   -1.2917    0.0000 C   0  0  0  0  0  0  0  0  0  0  0  0
   14.6042   -2.6917    0.0000 C   0  0  0  0  0  0  0  0  0  0  0  0
   15.1750   -2.0875    0.0000 C   0  0  0  0  0  0  0  0  0  0  0  0
  2  1  1  0
 12  3  1  1
  4  5  1  0
  5 17  1  0
  6 21  1  0
  7  9  1  0
  4  8  1  6
 11  9  1  6
 19 10  1  1
 11  2  1  0
 12  1  1  0
 13  8  1  0
 14 10  1  0
 15  3  1  0
 16 18  1  0
 27 17  1  1
 20 18  1  6
 19  7  1  0
 20 14  1  0
 21 15  1  0
 22 13  1  0
 20 23  1  0
 22 24  1  1
 25  6  1  0
 26 22  1  0
 27 16  1  0
 28 23  1  0
 29 24  1  0
 30 26  1  0
 31  2  2  0
 32  3  2  0
 33 49  1  0
 34  6  2  0
 35  5  2  0
 36  7  2  0
 37 14  2  0
 38 13  2  0
 39 16  2  0
  4 40  1  0
 41 28  2  0
 42 29  2  0
 43 30  2  0
 44 33  2  0
 27 45  1  0
 11 46  1  0
 47  1  1  0
 19 48  1  0
 49 45  1  0
 50 25  1  0
 51 29  1  0
 52 28  1  0
 53 33  1  0
 12 54  1  0
 40 55  1  6
 56 21  1  0
 57 47  1  0
 58 30  1  0
 59 40  1  0
 60 46  1  0
 61 46  1  0
 62 48  1  0
 63 48  1  0
 64 50  2  0
 65 50  1  0
 66 56  1  0
 67 66  1  0
 68 65  2  0
 69 64  1  0
 70 68  1  0
 54 57  1  0
 69 70  2  0
M  END

> <chembl_id>
CHEMBL216753

> <chembl_pref_name>
None

$$$$

     RDKit          2D

 71 72  0  0  1  0  0  0  0  0999 V2000
    9.2375   -4.5625    0.0000 N   0  0  0  0  0  0  0  0  0  0  0  0
    8.5250   -4.1417    0.0000 C   0  0  0  0  0  0  0  0  0  0  0  0
   10.1792   -3.4250    0.0000 C   0  0  0  0  0  0  0  0  0  0  0  0
   -0.7875   -4.4750    0.0000 C   0  0  0  0  0  0  0  0  0  0  0  0
   -0.0625   -4.0667    0.0000 C   0  0  0  0  0  0  0  0  0  0  0  0
   11.9292   -2.1250    0.0000 C   0  0  0  0  0  0  0  0  0  0  0  0
    6.3750   -4.5375    0.0000 C   0  0  0  0  0  0  0  0  0  0  0  0
   -1.5000   -4.0542    0.0000 N   0  0  0  0  0  0  0  0  0  0  0  0
    7.0917   -4.1292    0.0000 N   0  0  0  0  0  0  0  0  0  0  0  0
    4.9417   -4.5250    0.0000 N   0  0  0  0  0  0  0  0  0  0  0  0
    7.8042   -4.5542    0.0000 C   0  0  0  0  0  0  0  0  0  0  0  0
    9.9917   -4.2292    0.0000 C   0  0  0  0  0  0  0  0  0  0  0  0
   -2.2208   -4.4542    0.0000 C   0  0  0  0  0  0  0  0  0  0  0  0
    4.2292   -4.1042    0.0000 C   0  0  0  0  0  0  0  0  0  0  0  0
   10.9542   -3.1792    0.0000 N   0  0  0  0  0  0  0  0  0  0  0  0
    2.0792   -4.5000    0.0000 C   0  0  0  0  0  0  0  0  0  0  0  0
    0.6417   -4.4792    0.0000 N   0  0  0  0  0  0  0  0  0  0  0  0
    2.7917   -4.0917    0.0000 N   0  0  0  0  0  0  0  0  0  0  0  0
    5.6625   -4.1167    0.0000 C   0  0  0  0  0  0  0  0  0  0  0  0
    3.5125   -4.5042    0.0000 C   0  0  0  0  0  0  0  0  0  0  0  0
   11.1417   -2.3750    0.0000 N   0  0  0  0  0  0  0  0  0  0  0  0
   -2.9333   -4.0417    0.0000 C   0  0  0  0  0  0  0  0  0  0  0  0
    3.5042   -5.3375    0.0000 C   0  0  0  0  0  0  0  0  0  0  0  0
   -2.9250   -3.2167    0.0000 C   0  0  0  0  0  0  0  0  0  0  0  0
   12.3542   -1.4167    0.0000 S   0  0  0  0  0  0  0  0  0  0  0  0
   -3.6500   -4.4417    0.0000 N   0  0  0  0  0  0  0  0  0  0  0  0
    1.3625   -4.0792    0.0000 C   0  0  0  0  0  0  0  0  0  0  0  0
    4.2167   -5.7542    0.0000 C   0  0  0  0  0  0  0  0  0  0  0  0
   -2.2083   -2.8042    0.0000 C   0  0  0  0  0  0  0  0  0  0  0  0
   -3.6583   -5.2750    0.0000 C   0  0  0  0  0  0  0  0  0  0  0  0
    8.5292   -3.3167    0.0000 O   0  0  0  0  0  0  0  0  0  0  0  0
    9.5667   -2.8667    0.0000 O   0  0  0  0  0  0  0  0  0  0  0  0
    2.1000   -2.0167    0.0000 C   0  0  0  0  0  0  0  0  0  0  0  0
   12.3167   -2.8500    0.0000 O   0  0  0  0  0  0  0  0  0  0  0  0
   -0.0583   -3.2375    0.0000 O   0  0  0  0  0  0  0  0  0  0  0  0
    6.3667   -5.3625    0.0000 O   0  0  0  0  0  0  0  0  0  0  0  0
    4.2375   -3.2792    0.0000 O   0  0  0  0  0  0  0  0  0  0  0  0
   -2.2250   -5.2875    0.0000 O   0  0  0  0  0  0  0  0  0  0  0  0
    2.0667   -5.3250    0.0000 O   0  0  0  0  0  0  0  0  0  0  0  0
   -0.7958   -5.3000    0.0000 C   0  0  0  0  0  0  0  0  0  0  0  0
    4.2042   -6.5875    0.0000 O   0  0  0  0  0  0  0  0  0  0  0  0
   -2.2000   -1.9792    0.0000 O   0  0  0  0  0  0  0  0  0  0  0  0
   -4.3750   -5.6792    0.0000 O   0  0  0  0  0  0  0  0  0  0  0  0
    2.8167   -1.6125    0.0000 O   0  0  0  0  0  0  0  0  0  0  0  0
    1.3750   -3.2542    0.0000 C   0  0  0  0  0  0  0  0  0  0  0  0
   13.1792   -1.4417    0.0000 C   0  0  0  0  0  0  0  0  0  0  0  0
    7.8000   -5.3792    0.0000 C   0  0  0  0  0  0  0  0  0  0  0  0
    9.3167   -5.3792    0.0000 C   0  0  0  0  0  0  0  0  0  0  0  0
    5.6667   -3.2917    0.0000 C   0  0  0  0  0  0  0  0  0  0  0  0
    2.0917   -2.8417    0.0000 C   0  0  0  0  0  0  0  0  0  0  0  0
   14.8292   -1.4917    0.0000 C   0  0  0  0  0  0  0  0  0  0  0  0
    4.9375   -5.3542    0.0000 O   0  0  0  0  0  0  0  0  0  0  0  0
   -1.4958   -3.2250    0.0000 O   0  0  0  0  0  0  0  0  0  0  0  0
    1.3875   -1.6000    0.0000 O   0  0  0  0  0  0  0  0  0  0  0  0
   15.6542   -1.5167    0.0000 Cl  0  0  0  0  0  0  0  0  0  0  0  0
   13.5667   -2.1667    0.0000 C   0  0  0  0  0  0  0  0  0  0  0  0
   13.6042   -0.7417    0.0000 C   0  0  0  0  0  0  0  0  0  0  0  0
   14.4292   -0.7667    0.0000 C   0  0  0  0  0  0  0  0  0  0  0  0
   14.3917   -2.1917    0.0000 C   0  0  0  0  0  0  0  0  0  0  0  0
   10.5417   -4.8542    0.0000 C   0  0  0  0  0  0  0  0  0  0  0  0
   -0.0833   -5.7167    0.0000 O   0  0  0  0  0  0  0  0  0  0  0  0
   10.5292   -1.8167    0.0000 C   0  0  0  0  0  0  0  0  0  0  0  0
   10.1250   -5.5667    0.0000 C   0  0  0  0  0  0  0  0  0  0  0  0
   -2.9458   -5.6917    0.0000 C   0  0  0  0  0  0  0  0  0  0  0  0
   -1.5208   -5.7042    0.0000 C   0  0  0  0  0  0  0  0  0  0  0  0
    8.5125   -5.7917    0.0000 C   0  0  0  0  0  0  0  0  0  0  0  0
    7.0792   -5.7792    0.0000 C   0  0  0  0  0  0  0  0  0  0  0  0
    4.9542   -2.8667    0.0000 C   0  0  0  0  0  0  0  0  0  0  0  0
    6.3917   -2.8792    0.0000 C   0  0  0  0  0  0  0  0  0  0  0  0
   10.7042   -1.0042    0.0000 C   0  0  0  0  0  0  0  0  0  0  0  0
   10.1042   -0.4542    0.0000 C   0  0  0  0  0  0  0  0  0  0  0  0
  2  1  1  0
 12  3  1  1
  4  5  1  0
  5 17  1  0
  6 21  1  0
  7  9  1  0
  4  8  1  6
 11  9  1  6
 19 10  1  1
 11  2  1  0
 12  1  1  0
 13  8  1  0
 14 10  1  0
 15  3  1  0
 16 18  1  0
 27 17  1  1
 20 18  1  6
 19  7  1  0
 20 14  1  0
 21 15  1  0
 22 13  1  0
 20 23  1  0
 22 24  1  1
 25  6  1  0
 26 22  1  0
 27 16  1  0
 28 23  1  0
 29 24  1  0
 30 26  1  0
 31  2  2  0
 32  3  2  0
 33 50  1  0
 34  6  2  0
 35  5  2  0
 36  7  2  0
 37 14  2  0
 38 13  2  0
 39 16  2  0
  4 40  1  0
 41 28  2  0
 42 29  2  0
 43 30  2  0
 44 33  2  0
 27 45  1  0
 46 25  1  0
 11 47  1  0
 48  1  1  0
 19 49  1  0
 50 45  1  0
 51 58  1  0
 52 28  1  0
 53 29  1  0
 54 33  1  0
 55 51  1  0
 56 46  2  0
 57 46  1  0
 58 57  2  0
 59 56  1  0
 12 60  1  0
 40 61  1  6
 62 21  1  0
 63 48  1  0
 64 30  1  0
 65 40  1  0
 66 47  1  0
 67 47  1  0
 68 49  1  0
 69 49  1  0
 70 62  1  0
 71 70  1  0
 60 63  1  0
 59 51  2  0
M  END

> <chembl_id>
CHEMBL384151

> <chembl_pref_name>
None

$$$$

     RDKit          2D

 20 22  0  0  0  0  0  0  0  0999 V2000
    2.2042   -1.6500    0.0000 N   0  0  0  0  0  0  0  0  0  0  0  0
    1.4250   -0.5667    0.0000 C   0  0  0  0  0  0  0  0  0  0  0  0
    1.4250   -1.3917    0.0000 C   0  0  0  0  0  0  0  0  0  0  0  0
    2.2042   -0.3125    0.0000 N   0  0  0  0  0  0  0  0  0  0  0  0
    2.6917   -0.9792    0.0000 C   0  0  0  0  0  0  0  0  0  0  0  0
    0.7042   -0.1542    0.0000 C   0  0  0  0  0  0  0  0  0  0  0  0
    0.7042   -1.8125    0.0000 N   0  0  0  0  0  0  0  0  0  0  0  0
    2.4667   -2.4375    0.0000 C   0  0  0  0  0  0  0  0  0  0  0  0
   -0.0083   -0.5750    0.0000 N   0  0  0  0  0  0  0  0  0  0  0  0
    3.2667   -2.6042    0.0000 C   0  0  0  0  0  0  0  0  0  0  0  0
   -0.0083   -1.4000    0.0000 C   0  0  0  0  0  0  0  0  0  0  0  0
    3.8167   -1.9917    0.0000 C   0  0  0  0  0  0  0  0  0  0  0  0
    0.7042    0.6708    0.0000 N   0  0  0  0  0  0  0  0  0  0  0  0
    3.6042   -1.1917    0.0000 F   0  0  0  0  0  0  0  0  0  0  0  0
    3.5250   -3.3917    0.0000 C   0  0  0  0  0  0  0  0  0  0  0  0
    4.6250   -2.1625    0.0000 C   0  0  0  0  0  0  0  0  0  0  0  0
   -0.0083    1.0750    0.0000 C   0  0  0  0  0  0  0  0  0  0  0  0
   -0.0125    1.9000    0.0000 C   0  0  0  0  0  0  0  0  0  0  0  0
    4.3292   -3.5625    0.0000 C   0  0  0  0  0  0  0  0  0  0  0  0
    4.8792   -2.9500    0.0000 C   0  0  0  0  0  0  0  0  0  0  0  0
  2  3  1  0
  3  1  1  0
  4  5  2  0
  5  1  1  0
  6  2  2  0
  7  3  2  0
  8  1  1  0
  9 11  2  0
 10  8  1  0
 11  7  1  0
 12 10  1  0
 13  6  1  0
 14 12  1  0
 15 10  2  0
 16 12  2  0
 17 13  1  0
 18 17  1  0
 19 15  1  0
 20 19  2  0
  4  2  1  0
  6  9  1  0
 16 20  1  0
M  END

> <chembl_id>
CHEMBL269774

> <chembl_pref_name>
None

$$$$

     RDKit          2D

 19 21  0  0  0  0  0  0  0  0999 V2000
    4.9186   -1.0304    0.0000 N   0  0  0  0  0  0  0  0  0  0  0  0
    3.9137   -2.1441    0.0000 C   0  0  0  0  0  0  0  0  0  0  0  0
    2.5991   -1.5008    0.0000 C   0  0  0  0  0  0  0  0  0  0  0  0
    4.1701    0.2694    0.0000 C   0  0  0  0  0  0  0  0  0  0  0  0
    2.7025   -0.0408    0.0000 N   0  0  0  0  0  0  0  0  0  0  0  0
    4.1034   -3.1259    0.0000 O   0  0  0  0  0  0  0  0  0  0  0  0
    4.6594    1.3651    0.0000 O   0  0  0  0  0  0  0  0  0  0  0  0
    2.5959   -3.0016    0.0000 C   0  0  0  0  0  0  0  0  0  0  0  0
    1.2990   -0.7500    0.0000 C   0  0  0  0  0  0  0  0  0  0  0  0
    1.2990    0.7500    0.0000 C   0  0  0  0  0  0  0  0  0  0  0  0
    3.8934   -3.7543    0.0000 C   0  0  0  0  0  0  0  0  0  0  0  0
    1.2953   -3.7489    0.0000 C   0  0  0  0  0  0  0  0  0  0  0  0
    0.0000   -1.5000    0.0000 C   0  0  0  0  0  0  0  0  0  0  0  0
    3.8903   -5.2543    0.0000 C   0  0  0  0  0  0  0  0  0  0  0  0
    1.2922   -5.2489    0.0000 C   0  0  0  0  0  0  0  0  0  0  0  0
   -1.2990   -0.7500    0.0000 C   0  0  0  0  0  0  0  0  0  0  0  0
    0.0000    1.5000    0.0000 C   0  0  0  0  0  0  0  0  0  0  0  0
   -1.2990    0.7500    0.0000 C   0  0  0  0  0  0  0  0  0  0  0  0
    2.5897   -6.0016    0.0000 C   0  0  0  0  0  0  0  0  0  0  0  0
  2  1  1  0
  3  2  1  0
  4  1  2  0
  5  4  1  0
  6  2  2  0
  7  4  1  0
  8  3  1  0
  9  3  1  0
 10  9  2  0
 11  8  2  0
 12  8  1  0
 13  9  1  0
 14 11  1  0
 15 12  2  0
 16 13  2  0
 17 10  1  0
 18 17  2  0
 19 15  1  0
  3  5  1  0
 16 18  1  0
 14 19  2  0
M  END

> <chembl_id>
CHEMBL16

> <chembl_pref_name>
PHENYTOIN

$$$$

     RDKit          2D

 25 26  0  0  1  0  0  0  0  0999 V2000
    0.7167   -1.6917    0.0000 N   0  0  0  0  0  0  0  0  0  0  0  0
    0.5542   -2.5000    0.0000 C   0  0  0  0  0  0  0  0  0  0  0  0
    2.1875   -1.7417    0.0000 C   0  0  0  0  0  0  0  0  0  0  0  0
   -0.2250   -2.7667    0.0000 C   0  0  0  0  0  0  0  0  0  0  0  0
    1.4667   -1.3417    0.0000 C   0  0  0  0  0  0  0  0  0  0  0  0
    2.8917   -1.3167    0.0000 O   0  0  0  0  0  0  0  0  0  0  0  0
    4.3042   -0.4667    0.0000 N   0  0  0  0  0  0  0  0  0  0  0  0
   -0.3875   -3.5750    0.0000 C   0  0  0  0  0  0  0  0  0  0  0  0
    1.1750   -3.0417    0.0000 O   0  0  0  0  0  0  0  0  0  0  0  0
    2.1917   -2.5667    0.0000 O   0  0  0  0  0  0  0  0  0  0  0  0
   -0.8458   -2.2250    0.0000 O   0  0  0  0  0  0  0  0  0  0  0  0
    4.3250   -1.2917    0.0000 C   0  0  0  0  0  0  0  0  0  0  0  0
    0.1542   -1.0792    0.0000 C   0  0  0  0  0  0  0  0  0  0  0  0
    3.6167   -1.7167    0.0000 C   0  0  0  0  0  0  0  0  0  0  0  0
    1.3625   -0.5250    0.0000 C   0  0  0  0  0  0  0  0  0  0  0  0
    5.0167   -0.0417    0.0000 C   0  0  0  0  0  0  0  0  0  0  0  0
    3.5875   -0.0667    0.0000 C   0  0  0  0  0  0  0  0  0  0  0  0
    0.5542   -0.3625    0.0000 C   0  0  0  0  0  0  0  0  0  0  0  0
   -1.1708   -3.8417    0.0000 C   0  0  0  0  0  0  0  0  0  0  0  0
    0.2292   -4.1167    0.0000 C   0  0  0  0  0  0  0  0  0  0  0  0
   -1.1250   -3.2125    0.0000 C   0  0  0  0  0  0  0  0  0  0  0  0
    3.6292   -2.5417    0.0000 C   0  0  0  0  0  0  0  0  0  0  0  0
    5.0042    0.7750    0.0000 C   0  0  0  0  0  0  0  0  0  0  0  0
    3.5792    0.7583    0.0000 C   0  0  0  0  0  0  0  0  0  0  0  0
    4.2875    1.1833    0.0000 C   0  0  0  0  0  0  0  0  0  0  0  0
  2  1  1  0
  5  3  1  1
  4  2  1  0
  5  1  1  0
  6  3  1  0
  7 12  1  0
  8  4  1  0
  9  2  2  0
 10  3  2  0
 11  4  2  0
 12 14  1  0
 13  1  1  0
 14  6  1  0
 15  5  1  0
 16  7  1  0
 17  7  1  0
 18 13  1  0
 19  8  1  0
 20  8  1  0
 21  8  1  0
 22 14  1  0
 23 16  1  0
 24 17  1  0
 25 24  1  0
 18 15  1  0
 23 25  1  0
M  END

> <chembl_id>
CHEMBL269775

> <chembl_pref_name>
None

$$$$

     RDKit          2D

 68 71  0  0  0  0  0  0  0  0999 V2000
   -1.9000    2.2900    0.0000 C   0  0  0  0  0  0  0  0  0  0  0  0
   -0.7100    3.2100    0.0000 O   0  0  0  0  0  0  0  0  0  0  0  0
   -1.8636    1.0906    0.0000 O   0  0  0  0  0  0  0  0  0  0  0  0
   -3.1200    3.1200    0.0000 C   0  0  0  0  0  0  0  0  0  0  0  0
   -2.6400    4.4900    0.0000 C   0  0  0  0  0  0  0  0  0  0  0  0
   -3.4600    5.5000    0.0000 C   0  0  0  0  0  0  0  0  0  0  0  0
   -4.8400    5.2900    0.0000 C   0  0  0  0  0  0  0  0  0  0  0  0
   -5.4800    3.8300    0.0000 C   0  0  0  0  0  0  0  0  0  0  0  0
   -4.5400    2.3900    0.0000 N   0  0  0  0  0  0  0  0  0  0  0  0
   -6.1000    2.2500    0.0000 C   0  0  0  0  0  0  0  0  0  0  0  0
   -6.8303    3.2022    0.0000 O   0  0  0  0  0  0  0  0  0  0  0  0
   -6.6100    0.8600    0.0000 C   0  0  0  0  0  0  0  0  0  0  0  0
   -5.7904   -0.0165    0.0000 O   0  0  0  0  0  0  0  0  0  0  0  0
   -8.0800    0.4300    0.0000 C   0  0  0  0  0  0  0  0  0  0  0  0
   -7.2300   -0.9300    0.0000 O   0  0  0  0  0  0  0  0  0  0  0  0
   -8.3982    1.5870    0.0000 O   0  0  0  0  0  0  0  0  0  0  0  0
   -9.7100    0.0100    0.0000 C   0  0  0  0  0  0  0  0  0  0  0  0
  -10.1800   -1.4400    0.0000 C   0  0  0  0  0  0  0  0  0  0  0  0
   -9.2500   -2.5000    0.0000 C   0  0  0  0  0  0  0  0  0  0  0  0
   -7.8600   -2.2400    0.0000 C   0  0  0  0  0  0  0  0  0  0  0  0
   -6.8600   -3.4400    0.0000 C   0  0  0  0  0  0  0  0  0  0  0  0
   -5.3700   -2.8300    0.0000 C   0  0  0  0  0  0  0  0  0  0  0  0
   -5.1674   -1.3437    0.0000 O   0  0  0  0  0  0  0  0  0  0  0  0
   -4.1200   -3.7800    0.0000 C   0  0  0  0  0  0  0  0  0  0  0  0
   -2.6300   -3.1700    0.0000 C   0  0  0  0  0  0  0  0  0  0  0  0
   -1.4100   -4.1500    0.0000 C   0  0  0  0  0  0  0  0  0  0  0  0
    0.1200   -3.6900    0.0000 C   0  0  0  0  0  0  0  0  0  0  0  0
    1.1300   -4.8600    0.0000 C   0  0  0  0  0  0  0  0  0  0  0  0
    2.7800   -4.7900    0.0000 C   0  0  0  0  0  0  0  0  0  0  0  0
    3.3400   -6.2300    0.0000 C   0  0  0  0  0  0  0  0  0  0  0  0
    4.8700   -6.7500    0.0000 C   0  0  0  0  0  0  0  0  0  0  0  0
    6.2500   -5.8600    0.0000 C   0  0  0  0  0  0  0  0  0  0  0  0
    6.5100   -4.2800    0.0000 C   0  0  0  0  0  0  0  0  0  0  0  0
    7.6623   -3.9451    0.0000 O   0  0  0  0  0  0  0  0  0  0  0  0
    5.5100   -3.1600    0.0000 C   0  0  0  0  0  0  0  0  0  0  0  0
    4.0188   -3.2852    0.0000 O   0  0  0  0  0  0  0  0  0  0  0  0
    6.4400   -1.8000    0.0000 C   0  0  0  0  0  0  0  0  0  0  0  0
    7.6356   -1.9025    0.0000 O   0  0  0  0  0  0  0  0  0  0  0  0
    5.8000   -0.4000    0.0000 C   0  0  0  0  0  0  0  0  0  0  0  0
    4.3600   -0.3900    0.0000 C   0  0  0  0  0  0  0  0  0  0  0  0
    3.4300    0.8000    0.0000 C   0  0  0  0  0  0  0  0  0  0  0  0
    2.0600    0.3500    0.0000 C   0  0  0  0  0  0  0  0  0  0  0  0
    1.9216   -0.8420    0.0000 O   0  0  0  0  0  0  0  0  0  0  0  0
    0.8000    1.1200    0.0000 C   0  0  0  0  0  0  0  0  0  0  0  0
    0.6400    2.7300    0.0000 C   0  0  0  0  0  0  0  0  0  0  0  0
    0.4013    4.1939    0.0000 C   0  0  0  0  0  0  0  0  0  0  0  0
   -0.9905    4.7555    0.0000 C   0  0  0  0  0  0  0  0  0  0  0  0
   -1.2011    6.2415    0.0000 C   0  0  0  0  0  0  0  0  0  0  0  0
   -2.5913    6.8048    0.0000 C   0  0  0  0  0  0  0  0  0  0  0  0
   -2.7987    8.2904    0.0000 C   0  0  0  0  0  0  0  0  0  0  0  0
   -4.1909    8.8510    0.0000 O   0  0  0  0  0  0  0  0  0  0  0  0
   -1.6158    9.2128    0.0000 C   0  0  0  0  0  0  0  0  0  0  0  0
   -1.7817   10.4012    0.0000 O   0  0  0  0  0  0  0  0  0  0  0  0
   -0.2256    8.6496    0.0000 C   0  0  0  0  0  0  0  0  0  0  0  0
   -0.0182    7.1640    0.0000 C   0  0  0  0  0  0  0  0  0  0  0  0
  -10.5321    0.8841    0.0000 C   0  0  0  0  0  0  0  0  0  0  0  0
   -4.2763   -4.9698    0.0000 C   0  0  0  0  0  0  0  0  0  0  0  0
    2.5100   -7.0967    0.0000 C   0  0  0  0  0  0  0  0  0  0  0  0
    7.2534   -6.5182    0.0000 C   0  0  0  0  0  0  0  0  0  0  0  0
    6.4521    0.6074    0.0000 C   0  0  0  0  0  0  0  0  0  0  0  0
    3.7789    1.9482    0.0000 C   0  0  0  0  0  0  0  0  0  0  0  0
    1.3463    4.9335    0.0000 C   0  0  0  0  0  0  0  0  0  0  0  0
   -6.1155   -0.6081    0.0000 C   0  0  0  0  0  0  0  0  0  0  0  0
    3.5077   -4.3709    0.0000 C   0  0  0  0  0  0  0  0  0  0  0  0
   -5.1361    8.1118    0.0000 C   0  0  0  0  0  0  0  0  0  0  0  0
    1.5595    2.3368    0.0000 H   0  0  0  0  0  0  0  0  0  0  0  0
   -8.1987   -3.1809    0.0000 H   0  0  0  0  0  0  0  0  0  0  0  0
   -2.1702    3.4329    0.0000 H   0  0  0  0  0  0  0  0  0  0  0  0
  1  2  1  0
  1  3  2  0
  1  4  1  0
 45  2  1  0
  4  5  1  0
  4  9  1  0
  5  6  1  0
  6  7  1  0
  7  8  1  0
  8  9  1  0
 10  9  1  0
 10 11  2  0
 10 12  1  0
 12 13  2  0
 14 12  1  0
 14 15  1  0
 14 16  1  1
 14 17  1  0
 20 15  1  0
 17 18  1  0
 17 56  1  1
 18 19  1  0
 19 20  1  0
 20 21  1  0
 21 22  1  0
 22 23  1  6
 22 24  1  0
 63 23  1  0
 24 25  2  0
 24 57  1  0
 25 26  1  0
 26 27  2  0
 27 28  1  0
 28 29  2  0
 29 30  1  0
 30 31  1  0
 30 58  1  6
 31 32  1  0
 32 33  1  0
 32 59  1  6
 33 34  2  0
 33 35  1  0
 35 36  1  6
 35 37  1  0
 64 36  1  0
 37 38  1  1
 37 39  1  0
 39 40  2  0
 39 60  1  0
 40 41  1  0
 41 42  1  0
 41 61  1  6
 42 43  2  0
 42 44  1  0
 44 45  1  0
 45 46  1  0
 46 47  1  0
 46 62  1  1
 48 47  1  1
 48 49  1  0
 48 55  1  0
 49 50  1  0
 50 51  1  1
 50 52  1  0
 65 51  1  0
 52 53  1  6
 52 54  1  0
 54 55  1  0
 45 66  1  1
 20 67  1  1
  4 68  1  6
M  END

> <chembl_id>
CHEMBL413

> <chembl_pref_name>
SIROLIMUS

$$$$

     RDKit          2D

 59 62  0  0  1  0  0  0  0  0999 V2000
    4.3400    0.9300    0.0000 O   0  0  0  0  0  0  0  0  0  0  0  0
    4.6099    3.6450    0.0000 O   0  0  0  0  0  0  0  0  0  0  0  0
    8.2076   -0.1525    0.0000 O   0  0  0  0  0  0  0  0  0  0  0  0
    6.8275   -2.1560    0.0000 O   0  0  0  0  0  0  0  0  0  0  0  0
    3.3547    4.4788    0.0000 O   0  0  0  0  0  0  0  0  0  0  0  0
    1.9207    1.3881    0.0000 O   0  0  0  0  0  0  0  0  0  0  0  0
   -2.2500    1.7900    0.0000 O   0  0  0  0  0  0  0  0  0  0  0  0
   -0.0515    0.8289    0.0000 O   0  0  0  0  0  0  0  0  0  0  0  0
   -3.6832   -2.5724    0.0000 O   0  0  0  0  0  0  0  0  0  0  0  0
   -3.0431   -5.2825    0.0000 O   0  0  0  0  0  0  0  0  0  0  0  0
   -9.5051   -3.8610    0.0000 O   0  0  0  0  0  0  0  0  0  0  0  0
  -10.8751   -1.3450    0.0000 O   0  0  0  0  0  0  0  0  0  0  0  0
    0.9900    3.5700    0.0000 N   0  0  0  0  0  0  0  0  0  0  0  0
    4.5000    2.4500    0.0000 C   0  0  0  0  0  0  0  0  0  0  0  0
    5.6200    0.1000    0.0000 C   0  0  0  0  0  0  0  0  0  0  0  0
    6.9800    0.7100    0.0000 C   0  0  0  0  0  0  0  0  0  0  0  0
    5.8600    3.0600    0.0000 C   0  0  0  0  0  0  0  0  0  0  0  0
    3.3000    3.2800    0.0000 C   0  0  0  0  0  0  0  0  0  0  0  0
    5.5000   -1.4500    0.0000 C   0  0  0  0  0  0  0  0  0  0  0  0
    7.0800    2.2400    0.0000 C   0  0  0  0  0  0  0  0  0  0  0  0
    2.0600    2.5800    0.0000 C   0  0  0  0  0  0  0  0  0  0  0  0
    4.3000   -2.4200    0.0000 C   0  0  0  0  0  0  0  0  0  0  0  0
   -0.3600    3.1800    0.0000 C   0  0  0  0  0  0  0  0  0  0  0  0
    5.9620    4.2557    0.0000 C   0  0  0  0  0  0  0  0  0  0  0  0
    1.3600    4.9600    0.0000 C   0  0  0  0  0  0  0  0  0  0  0  0
    4.5700   -3.9100    0.0000 C   0  0  0  0  0  0  0  0  0  0  0  0
   -0.7700    1.7900    0.0000 C   0  0  0  0  0  0  0  0  0  0  0  0
   -1.4000    4.1800    0.0000 C   0  0  0  0  0  0  0  0  0  0  0  0
    9.2963    0.3521    0.0000 C   0  0  0  0  0  0  0  0  0  0  0  0
    0.3400    5.9800    0.0000 C   0  0  0  0  0  0  0  0  0  0  0  0
    6.8699   -3.3553    0.0000 C   0  0  0  0  0  0  0  0  0  0  0  0
   -1.0400    5.5700    0.0000 C   0  0  0  0  0  0  0  0  0  0  0  0
   -3.0300    0.4800    0.0000 C   0  0  0  0  0  0  0  0  0  0  0  0
    3.4100   -4.8000    0.0000 C   0  0  0  0  0  0  0  0  0  0  0  0
   -2.0600   -0.7300    0.0000 C   0  0  0  0  0  0  0  0  0  0  0  0
    5.6894   -4.3423    0.0000 C   0  0  0  0  0  0  0  0  0  0  0  0
   -4.5249    0.3786    0.0000 C   0  0  0  0  0  0  0  0  0  0  0  0
    3.4100   -6.5900    0.0000 C   0  0  0  0  0  0  0  0  0  0  0  0
   -2.5600   -2.1500    0.0000 C   0  0  0  0  0  0  0  0  0  0  0  0
   -5.1867   -0.9684    0.0000 C   0  0  0  0  0  0  0  0  0  0  0  0
    1.2900   -6.0600    0.0000 C   0  0  0  0  0  0  0  0  0  0  0  0
   -6.6841   -1.0698    0.0000 C   0  0  0  0  0  0  0  0  0  0  0  0
   -0.4500   -6.6300    0.0000 C   0  0  0  0  0  0  0  0  0  0  0  0
   -1.2100   -2.9100    0.0000 C   0  0  0  0  0  0  0  0  0  0  0  0
   -1.8700   -5.0300    0.0000 C   0  0  0  0  0  0  0  0  0  0  0  0
   -0.8770   -0.5286    0.0000 C   0  0  0  0  0  0  0  0  0  0  0  0
   -5.1934    1.3752    0.0000 C   0  0  0  0  0  0  0  0  0  0  0  0
    4.1485   -7.5358    0.0000 C   0  0  0  0  0  0  0  0  0  0  0  0
   -7.3474   -2.4152    0.0000 C   0  0  0  0  0  0  0  0  0  0  0  0
   -8.8442   -2.5135    0.0000 C   0  0  0  0  0  0  0  0  0  0  0  0
   -7.5177    0.1773    0.0000 C   0  0  0  0  0  0  0  0  0  0  0  0
   -9.6777   -1.2664    0.0000 C   0  0  0  0  0  0  0  0  0  0  0  0
   -0.7848   -8.0861    0.0000 C   0  0  0  0  0  0  0  0  0  0  0  0
   -9.0144    0.0790    0.0000 C   0  0  0  0  0  0  0  0  0  0  0  0
    0.3142   -9.1081    0.0000 C   0  0  0  0  0  0  0  0  0  0  0  0
   -8.8369   -4.8577    0.0000 C   0  0  0  0  0  0  0  0  0  0  0  0
    0.0467  -10.2779    0.0000 C   0  0  0  0  0  0  0  0  0  0  0  0
    6.4378   -0.4755    0.0000 H   0  0  0  0  0  0  0  0  0  0  0  0
   -1.3266    2.9238    0.0000 H   0  0  0  0  0  0  0  0  0  0  0  0
  1 14  1  0
 15  1  1  0
 14  2  1  6
 16  3  1  6
  3 29  1  0
 19  4  1  1
  4 31  1  0
  5 18  2  0
  6 21  2  0
  7 27  1  0
  7 33  1  0
  8 27  2  0
 39  9  1  6
 10 45  2  0
 50 11  1  1
 11 56  1  0
 52 12  1  6
 13 21  1  0
 13 23  1  0
 13 25  1  0
 14 17  1  0
 14 18  1  0
 15 16  1  0
 15 19  1  0
 15 58  1  6
 16 20  1  0
 17 20  1  0
 17 24  1  6
 18 21  1  0
 19 22  1  0
 22 26  1  0
 23 27  1  0
 23 28  1  0
 25 30  1  0
 26 34  1  0
 26 36  1  1
 28 32  1  0
 30 32  1  0
 33 35  1  0
 33 37  1  1
 34 38  1  0
 35 39  1  0
 35 46  1  6
 37 40  2  0
 37 47  1  0
 38 41  2  0
 38 48  1  0
 39 44  1  0
 42 40  1  1
 41 43  1  0
 42 49  1  0
 42 51  1  0
 43 45  1  0
 43 53  1  1
 44 45  1  0
 49 50  1  0
 50 52  1  0
 51 54  1  0
 52 54  1  0
 53 55  1  0
 55 57  2  0
 23 59  1  1
M  END

> <chembl_id>
CHEMBL269732

> <chembl_pref_name>
TACROLIMUS

$$$$

     RDKit          2D

 26 27  0  0  0  0  0  0  0  0999 V2000
   -0.8725    0.6218    0.0000 C   0  0  0  0  0  0  0  0  0  0  0  0
   -1.6261    0.2862    0.0000 N   0  0  0  0  0  0  0  0  0  0  0  0
   -2.1782    0.8993    0.0000 C   0  0  0  0  0  0  0  0  0  0  0  0
   -0.9587    1.4423    0.0000 C   0  0  0  0  0  0  0  0  0  0  0  0
   -1.7657    1.6138    0.0000 C   0  0  0  0  0  0  0  0  0  0  0  0
   -0.1580    0.2093    0.0000 C   0  0  0  0  0  0  0  0  0  0  0  0
   -0.1580   -0.6157    0.0000 O   0  0  0  0  0  0  0  0  0  0  0  0
    0.5565    0.6218    0.0000 O   0  0  0  0  0  0  0  0  0  0  0  0
    1.2710    0.2093    0.0000 C   0  0  0  0  0  0  0  0  0  0  0  0
    1.9854    0.6218    0.0000 C   0  0  0  0  0  0  0  0  0  0  0  0
    2.6999    0.2093    0.0000 C   0  0  0  0  0  0  0  0  0  0  0  0
    4.8433    0.6218    0.0000 N   0  0  0  0  0  0  0  0  0  0  0  0
    4.8433    1.4468    0.0000 C   0  0  0  0  0  0  0  0  0  0  0  0
    4.1288    1.8593    0.0000 C   0  0  0  0  0  0  0  0  0  0  0  0
    3.4144    1.4468    0.0000 C   0  0  0  0  0  0  0  0  0  0  0  0
    3.4144    0.6218    0.0000 C   0  0  0  0  0  0  0  0  0  0  0  0
    4.1288    0.2093    0.0000 C   0  0  0  0  0  0  0  0  0  0  0  0
   -1.7977   -0.5207    0.0000 C   0  0  0  0  0  0  0  0  0  0  0  0
   -1.1846   -1.0728    0.0000 O   0  0  0  0  0  0  0  0  0  0  0  0
   -2.5823   -0.7757    0.0000 C   0  0  0  0  0  0  0  0  0  0  0  0
   -3.1954   -0.2236    0.0000 O   0  0  0  0  0  0  0  0  0  0  0  0
   -2.7538   -1.5826    0.0000 C   0  0  0  0  0  0  0  0  0  0  0  0
   -3.5608   -1.4111    0.0000 C   0  0  0  0  0  0  0  0  0  0  0  0
   -1.9468   -1.7542    0.0000 C   0  0  0  0  0  0  0  0  0  0  0  0
   -2.9253   -2.3896    0.0000 C   0  0  0  0  0  0  0  0  0  0  0  0
   -3.7100   -2.6446    0.0000 C   0  0  0  0  0  0  0  0  0  0  0  0
  1  2  1  0
  1  4  1  0
  1  6  1  1
  3  2  1  0
 18  2  1  0
  5  3  1  0
  4  5  1  0
  6  7  2  0
  6  8  1  0
  9  8  1  0
  9 10  1  0
 10 11  1  0
 11 16  1  0
 13 12  2  0
 17 12  1  0
 13 14  1  0
 14 15  2  0
 16 15  1  0
 16 17  2  0
 18 19  2  0
 18 20  1  0
 20 21  2  0
 20 22  1  0
 23 22  1  0
 24 22  1  0
 25 22  1  0
 25 26  1  0
M  END

> <chembl_id>
CHEMBL6367

> <chembl_pref_name>
GPI-1046

$$$$

     RDKit          2D

 11 11  0  0  0  0  0  0  0  0999 V2000
    1.0417   -5.0500    0.0000 Br  0  0  0  0  0  0  0  0  0  0  0  0
   -1.3333   -3.0250    0.0000 C   0  0  0  0  0  0  0  0  0  0  0  0
   -0.5125   -3.5417    0.0000 N   0  0  0  0  0  0  0  0  0  0  0  0
   -0.7333   -2.9875    0.0000 C   0  0  0  0  0  0  0  0  0  0  0  0
   -1.4833   -3.6042    0.0000 C   0  0  0  0  0  0  0  0  0  0  0  0
   -0.9750   -3.9292    0.0000 O   0  0  0  0  0  0  0  0  0  0  0  0
   -2.3375   -2.7542    0.0000 N   0  0  0  0  0  0  0  0  0  0  0  0
   -1.7583   -2.6000    0.0000 C   0  0  0  0  0  0  0  0  0  0  0  0
   -2.0625   -3.7625    0.0000 C   0  0  0  0  0  0  0  0  0  0  0  0
   -0.4375   -2.4667    0.0000 O   0  0  0  0  0  0  0  0  0  0  0  0
   -2.4958   -3.3417    0.0000 C   0  0  0  0  0  0  0  0  0  0  0  0
  3  4  2  0
  4  2  1  0
  5  2  2  0
  6  5  1  0
  7  8  1  0
  8  2  1  0
  9  5  1  0
 10  4  1  0
 11  7  1  0
  3  6  1  0
 11  9  1  0
M  END

> <chembl_id>
CHEMBL6373

> <chembl_pref_name>
None

$$$$

     RDKit          2D

 27 29  0  0  0  0  0  0  0  0999 V2000
    6.8667   -5.0167    0.0000 Br  0  0  0  0  0  0  0  0  0  0  0  0
    3.5667   -3.5292    0.0000 C   0  0  0  0  0  0  0  0  0  0  0  0
    4.0875   -3.8292    0.0000 C   0  0  0  0  0  0  0  0  0  0  0  0
    4.6042   -3.5292    0.0000 C   0  0  0  0  0  0  0  0  0  0  0  0
    3.0542   -3.8292    0.0000 O   0  0  0  0  0  0  0  0  0  0  0  0
    3.5667   -2.9292    0.0000 C   0  0  0  0  0  0  0  0  0  0  0  0
    3.0542   -6.2292    0.0000 N   0  0  0  0  0  0  0  0  0  0  0  0
    4.6042   -2.9292    0.0000 C   0  0  0  0  0  0  0  0  0  0  0  0
    2.5292   -3.5292    0.0000 C   0  0  0  0  0  0  0  0  0  0  0  0
    3.0542   -2.6292    0.0000 C   0  0  0  0  0  0  0  0  0  0  0  0
    4.0875   -2.6292    0.0000 C   0  0  0  0  0  0  0  0  0  0  0  0
    2.5292   -2.9292    0.0000 C   0  0  0  0  0  0  0  0  0  0  0  0
    3.0542   -7.4292    0.0000 N   0  0  0  0  0  0  0  0  0  0  0  0
    5.1792   -3.7167    0.0000 O   0  0  0  0  0  0  0  0  0  0  0  0
    5.5375   -3.2292    0.0000 C   0  0  0  0  0  0  0  0  0  0  0  0
    5.1792   -2.7417    0.0000 C   0  0  0  0  0  0  0  0  0  0  0  0
    2.0042   -3.8292    0.0000 O   0  0  0  0  0  0  0  0  0  0  0  0
    2.5292   -6.5292    0.0000 C   0  0  0  0  0  0  0  0  0  0  0  0
    3.5667   -6.5292    0.0000 C   0  0  0  0  0  0  0  0  0  0  0  0
    4.0875   -4.4292    0.0000 O   0  0  0  0  0  0  0  0  0  0  0  0
    3.5750   -7.1292    0.0000 C   0  0  0  0  0  0  0  0  0  0  0  0
    2.5375   -7.1292    0.0000 C   0  0  0  0  0  0  0  0  0  0  0  0
    3.0500   -5.6292    0.0000 C   0  0  0  0  0  0  0  0  0  0  0  0
    2.4750   -6.0750    0.0000 C   0  0  0  0  0  0  0  0  0  0  0  0
    3.5667   -5.3292    0.0000 C   0  0  0  0  0  0  0  0  0  0  0  0
    3.0542   -8.0292    0.0000 C   0  0  0  0  0  0  0  0  0  0  0  0
    3.5667   -4.7292    0.0000 C   0  0  0  0  0  0  0  0  0  0  0  0
  3  2  1  0
  4  3  2  0
  5  2  1  0
  6  2  2  0
  7 23  1  0
  8 11  2  0
  9  5  1  0
 10  6  1  0
 11  6  1  0
 12 10  2  0
 13 21  1  0
 14  4  1  0
 15 14  1  0
 16  8  1  0
 17  9  2  0
 18  7  1  0
 19  7  1  0
 20  3  1  0
 21 19  1  0
 22 18  1  0
 23 25  1  0
 24  7  1  0
 25 27  1  0
 26 13  1  0
 27 20  1  0
  8  4  1  0
 12  9  1  0
 15 16  2  0
 22 13  1  0
M  CHG  2   1  -1   7   1
M  END

> <chembl_id>
CHEMBL6374

> <chembl_pref_name>
None

$$$$

     RDKit          2D

 23 24  0  0  0  0  0  0  0  0999 V2000
    2.3542   -0.1792    0.0000 Br  0  0  0  0  0  0  0  0  0  0  0  0
   -1.4083   -0.7250    0.0000 C   0  0  0  0  0  0  0  0  0  0  0  0
   -0.8958   -1.0250    0.0000 C   0  0  0  0  0  0  0  0  0  0  0  0
   -0.3708   -0.7250    0.0000 C   0  0  0  0  0  0  0  0  0  0  0  0
   -1.9250   -1.0250    0.0000 O   0  0  0  0  0  0  0  0  0  0  0  0
   -1.4083   -0.1250    0.0000 C   0  0  0  0  0  0  0  0  0  0  0  0
   -0.3708   -0.1167    0.0000 C   0  0  0  0  0  0  0  0  0  0  0  0
   -2.4458   -0.7250    0.0000 C   0  0  0  0  0  0  0  0  0  0  0  0
   -1.9250    0.1750    0.0000 C   0  0  0  0  0  0  0  0  0  0  0  0
   -0.8958    0.1833    0.0000 C   0  0  0  0  0  0  0  0  0  0  0  0
   -2.4458   -0.1167    0.0000 C   0  0  0  0  0  0  0  0  0  0  0  0
    0.2042   -0.9125    0.0000 O   0  0  0  0  0  0  0  0  0  0  0  0
    0.5542   -0.4167    0.0000 C   0  0  0  0  0  0  0  0  0  0  0  0
   -1.9250   -3.4250    0.0000 N   0  0  0  0  0  0  0  0  0  0  0  0
    0.2042    0.0708    0.0000 C   0  0  0  0  0  0  0  0  0  0  0  0
   -2.9708   -1.0250    0.0000 O   0  0  0  0  0  0  0  0  0  0  0  0
   -0.8958   -1.6250    0.0000 O   0  0  0  0  0  0  0  0  0  0  0  0
   -1.4083   -2.5250    0.0000 C   0  0  0  0  0  0  0  0  0  0  0  0
   -1.9333   -2.8250    0.0000 C   0  0  0  0  0  0  0  0  0  0  0  0
   -1.9208   -4.0250    0.0000 C   0  0  0  0  0  0  0  0  0  0  0  0
   -2.4083   -2.9042    0.0000 C   0  0  0  0  0  0  0  0  0  0  0  0
   -2.7208   -3.6167    0.0000 C   0  0  0  0  0  0  0  0  0  0  0  0
   -1.4083   -1.9250    0.0000 C   0  0  0  0  0  0  0  0  0  0  0  0
  3  2  1  0
  4  3  2  0
  5  2  1  0
  6  2  2  0
  7 10  2  0
  8  5  1  0
  9  6  1  0
 10  6  1  0
 11  9  2  0
 12  4  1  0
 13 12  1  0
 14 19  1  0
 15  7  1  0
 16  8  2  0
 17  3  1  0
 18 23  1  0
 19 18  1  0
 20 14  1  0
 21 14  1  0
 22 14  1  0
 23 17  1  0
  7  4  1  0
 11  8  1  0
 13 15  2  0
M  CHG  2   1  -1  14   1
M  END

> <chembl_id>
CHEMBL268832

> <chembl_pref_name>
None

$$$$

     RDKit          2D

 17 19  0  0  0  0  0  0  0  0999 V2000
    2.8115   -5.3626    0.0000 N   0  0  0  0  0  0  0  0  0  0  0  0
    3.5237   -4.9462    0.0000 C   0  0  0  0  0  0  0  0  0  0  0  0
    4.2398   -5.3548    0.0000 N   0  0  0  0  0  0  0  0  0  0  0  0
    2.8037   -3.7086    0.0000 N   0  0  0  0  0  0  0  0  0  0  0  0
    2.0915   -4.1250    0.0000 C   0  0  0  0  0  0  0  0  0  0  0  0
    2.0915   -4.9462    0.0000 C   0  0  0  0  0  0  0  0  0  0  0  0
    1.3793   -3.7086    0.0000 C   0  0  0  0  0  0  0  0  0  0  0  0
    3.5160   -4.1172    0.0000 C   0  0  0  0  0  0  0  0  0  0  0  0
    5.6642   -6.1721    0.0000 N   0  0  0  0  0  0  0  0  0  0  0  0
    1.3793   -5.3665    0.0000 C   0  0  0  0  0  0  0  0  0  0  0  0
    0.6671   -4.1250    0.0000 C   0  0  0  0  0  0  0  0  0  0  0  0
    0.6671   -4.9539    0.0000 C   0  0  0  0  0  0  0  0  0  0  0  0
   -0.0490   -3.7086    0.0000 Br  0  0  0  0  0  0  0  0  0  0  0  0
    4.9481   -4.9345    0.0000 C   0  0  0  0  0  0  0  0  0  0  0  0
    4.2398   -6.1799    0.0000 C   0  0  0  0  0  0  0  0  0  0  0  0
    4.9520   -6.5885    0.0000 C   0  0  0  0  0  0  0  0  0  0  0  0
    5.6642   -5.3509    0.0000 C   0  0  0  0  0  0  0  0  0  0  0  0
  2  1  2  0
  3  2  1  0
  4  5  1  0
  5  6  1  0
  6  1  1  0
  7  5  2  0
  8  2  1  0
  9 16  1  0
 10  6  2  0
 11 12  2  0
 12 10  1  0
 13 11  1  0
 14  3  1  0
 15  3  1  0
 16 15  1  0
 17 14  1  0
  4  8  2  0
 11  7  1  0
 17  9  1  0
M  END

> <chembl_id>
CHEMBL6837

> <chembl_pref_name>
None

$$$$

     RDKit          2D

 23 24  0  0  0  0  0  0  0  0999 V2000
    5.2290   -8.2315    0.0000 C   0  0  0  0  0  0  0  0  0  0  0  0
    4.5145   -7.8190    0.0000 C   0  0  0  0  0  0  0  0  0  0  0  0
    3.8000   -8.2315    0.0000 C   0  0  0  0  0  0  0  0  0  0  0  0
    3.8000   -9.0565    0.0000 C   0  0  0  0  0  0  0  0  0  0  0  0
    4.5145   -9.4690    0.0000 C   0  0  0  0  0  0  0  0  0  0  0  0
    5.2290   -9.0565    0.0000 C   0  0  0  0  0  0  0  0  0  0  0  0
    4.5145  -10.2940    0.0000 S   0  0  0  0  0  0  0  0  0  0  0  0
    4.5145  -11.1190    0.0000 N   0  0  0  0  0  0  0  0  0  0  0  0
    5.2290  -11.5315    0.0000 C   0  0  0  0  0  0  0  0  0  0  0  0
    5.2290  -12.3565    0.0000 C   0  0  0  0  0  0  0  0  0  0  0  0
    5.9435  -12.7690    0.0000 C   0  0  0  0  0  0  0  0  0  0  0  0
    6.6579  -12.3565    0.0000 C   0  0  0  0  0  0  0  0  0  0  0  0
    7.3724  -12.7690    0.0000 C   0  0  0  0  0  0  0  0  0  0  0  0
    7.3724  -13.5940    0.0000 C   0  0  0  0  0  0  0  0  0  0  0  0
    6.6579  -14.0065    0.0000 C   0  0  0  0  0  0  0  0  0  0  0  0
    5.9435  -13.5940    0.0000 C   0  0  0  0  0  0  0  0  0  0  0  0
    8.0869  -14.0065    0.0000 S   0  0  0  0  0  0  0  0  0  0  0  0
    8.8013  -14.4190    0.0000 N   0  0  0  0  0  0  0  0  0  0  0  0
    8.4994  -13.2920    0.0000 O   0  0  0  0  0  0  0  0  0  0  0  0
    7.6744  -14.7209    0.0000 O   0  0  0  0  0  0  0  0  0  0  0  0
    4.5145   -6.9940    0.0000 N   0  0  0  0  0  0  0  0  0  0  0  0
    5.3395  -10.2940    0.0000 O   0  0  0  0  0  0  0  0  0  0  0  0
    3.6895  -10.2940    0.0000 O   0  0  0  0  0  0  0  0  0  0  0  0
  5  6  2  0
 11 12  2  0
  6  1  1  0
 12 13  1  0
  1  2  2  0
 13 14  2  0
  5  7  1  0
 14 15  1  0
  3  4  2  0
 15 16  2  0
 16 11  1  0
  7  8  1  0
 14 17  1  0
 17 18  1  0
  8  9  1  0
 17 19  2  0
  4  5  1  0
 17 20  2  0
  9 10  1  0
  2 21  1  0
  2  3  1  0
  7 22  2  0
 10 11  1  0
  7 23  2  0
M  END

> <chembl_id>
CHEMBL7146

> <chembl_pref_name>
None

$$$$

     RDKit          2D

 22 23  0  0  0  0  0  0  0  0999 V2000
   -0.8828  -11.3117    0.0000 N   0  0  0  0  0  0  0  0  0  0  0  0
   -0.1684  -11.7242    0.0000 C   0  0  0  0  0  0  0  0  0  0  0  0
   -0.1684  -12.5492    0.0000 C   0  0  0  0  0  0  0  0  0  0  0  0
    0.5461  -12.9617    0.0000 C   0  0  0  0  0  0  0  0  0  0  0  0
    0.5461  -13.7867    0.0000 C   0  0  0  0  0  0  0  0  0  0  0  0
   -0.1684  -14.1992    0.0000 C   0  0  0  0  0  0  0  0  0  0  0  0
   -0.8828  -13.7867    0.0000 C   0  0  0  0  0  0  0  0  0  0  0  0
   -0.8828  -12.9617    0.0000 C   0  0  0  0  0  0  0  0  0  0  0  0
   -0.1684  -15.0242    0.0000 S   0  0  0  0  0  0  0  0  0  0  0  0
   -0.1684  -15.8492    0.0000 N   0  0  0  0  0  0  0  0  0  0  0  0
    0.6566  -15.0242    0.0000 O   0  0  0  0  0  0  0  0  0  0  0  0
   -0.9934  -15.0242    0.0000 O   0  0  0  0  0  0  0  0  0  0  0  0
   -0.8828  -10.4867    0.0000 S   0  0  0  0  0  0  0  0  0  0  0  0
   -0.8828   -9.6617    0.0000 C   0  0  0  0  0  0  0  0  0  0  0  0
   -0.0578  -10.4867    0.0000 O   0  0  0  0  0  0  0  0  0  0  0  0
   -1.7078  -10.4867    0.0000 O   0  0  0  0  0  0  0  0  0  0  0  0
   -1.5973   -9.2492    0.0000 C   0  0  0  0  0  0  0  0  0  0  0  0
   -1.5973   -8.4242    0.0000 C   0  0  0  0  0  0  0  0  0  0  0  0
   -0.8828   -8.0117    0.0000 C   0  0  0  0  0  0  0  0  0  0  0  0
   -0.1684   -8.4242    0.0000 C   0  0  0  0  0  0  0  0  0  0  0  0
   -0.1684   -9.2492    0.0000 C   0  0  0  0  0  0  0  0  0  0  0  0
   -0.8828   -7.1867    0.0000 N   0  0  0  0  0  0  0  0  0  0  0  0
  9 11  2  0
  5  6  2  0
  9 12  2  0
  1  2  1  0
  1 13  1  0
  6  7  1  0
 13 14  1  0
  3  4  2  0
 13 15  2  0
  7  8  2  0
 13 16  2  0
  8  3  1  0
 14 17  2  0
 17 18  1  0
  6  9  1  0
 18 19  2  0
  4  5  1  0
 19 20  1  0
  9 10  1  0
 20 21  2  0
 21 14  1  0
  2  3  1  0
 19 22  1  0
M  END

> <chembl_id>
CHEMBL266026

> <chembl_pref_name>
None

$$$$

     RDKit          2D

 21 22  0  0  0  0  0  0  0  0999 V2000
    5.4717    1.7411    0.0000 C   0  0  0  0  0  0  0  0  0  0  0  0
    5.4705    0.9140    0.0000 C   0  0  0  0  0  0  0  0  0  0  0  0
    6.1850    0.5013    0.0000 C   0  0  0  0  0  0  0  0  0  0  0  0
    6.9013    0.9145    0.0000 C   0  0  0  0  0  0  0  0  0  0  0  0
    6.8984    1.7447    0.0000 C   0  0  0  0  0  0  0  0  0  0  0  0
    6.1832    2.1537    0.0000 C   0  0  0  0  0  0  0  0  0  0  0  0
    4.7559    0.5022    0.0000 S   0  0  0  0  0  0  0  0  0  0  0  0
    4.7553   -0.3225    0.0000 N   0  0  0  0  0  0  0  0  0  0  0  0
    4.3360    1.2204    0.0000 O   0  0  0  0  0  0  0  0  0  0  0  0
    3.9528    0.2916    0.0000 O   0  0  0  0  0  0  0  0  0  0  0  0
    7.6110    2.1597    0.0000 N   0  0  0  0  0  0  0  0  0  0  0  0
    8.3268    1.7501    0.0000 S   0  0  0  0  0  0  0  0  0  0  0  0
    9.0395    2.1651    0.0000 C   0  0  0  0  0  0  0  0  0  0  0  0
    8.7344    1.0413    0.0000 O   0  0  0  0  0  0  0  0  0  0  0  0
    7.9097    1.0413    0.0000 O   0  0  0  0  0  0  0  0  0  0  0  0
    9.7537    1.7521    0.0000 C   0  0  0  0  0  0  0  0  0  0  0  0
   10.4658    2.1664    0.0000 C   0  0  0  0  0  0  0  0  0  0  0  0
   10.4631    2.9921    0.0000 C   0  0  0  0  0  0  0  0  0  0  0  0
    9.7424    3.4015    0.0000 C   0  0  0  0  0  0  0  0  0  0  0  0
    9.0331    2.9848    0.0000 C   0  0  0  0  0  0  0  0  0  0  0  0
   11.1753    3.4080    0.0000 N   0  0  0  0  0  0  0  0  0  0  0  0
  2  3  1  0
  5 11  1  0
  5  6  2  0
 11 12  1  0
  6  1  1  0
 12 13  1  0
  1  2  2  0
 12 14  2  0
  2  7  1  0
 12 15  2  0
  3  4  2  0
 13 16  2  0
  7  8  1  0
 16 17  1  0
 17 18  2  0
  7  9  2  0
 18 19  1  0
  4  5  1  0
 19 20  2  0
 20 13  1  0
  7 10  2  0
 18 21  1  0
M  END

> <chembl_id>
CHEMBL269122

> <chembl_pref_name>
None

$$$$

     RDKit          2D

 20 21  0  0  0  0  0  0  0  0999 V2000
    2.6520   -2.4290    0.0000 C   0  0  0  0  0  0  0  0  0  0  0  0
    3.3171   -2.9152    0.0000 S   0  0  0  0  0  0  0  0  0  0  0  0
    3.9853   -2.4330    0.0000 C   0  0  0  0  0  0  0  0  0  0  0  0
    3.7329   -1.6484    0.0000 N   0  0  0  0  0  0  0  0  0  0  0  0
    2.9091   -1.6461    0.0000 N   0  0  0  0  0  0  0  0  0  0  0  0
    4.7036   -2.8395    0.0000 S   0  0  0  0  0  0  0  0  0  0  0  0
    4.7110   -3.6653    0.0000 N   0  0  0  0  0  0  0  0  0  0  0  0
    5.0671   -2.0952    0.0000 O   0  0  0  0  0  0  0  0  0  0  0  0
    5.4409   -3.2033    0.0000 O   0  0  0  0  0  0  0  0  0  0  0  0
    1.9401   -2.8460    0.0000 N   0  0  0  0  0  0  0  0  0  0  0  0
    1.2222   -2.4384    0.0000 S   0  0  0  0  0  0  0  0  0  0  0  0
    0.5100   -2.8562    0.0000 C   0  0  0  0  0  0  0  0  0  0  0  0
    0.6306   -1.8474    0.0000 O   0  0  0  0  0  0  0  0  0  0  0  0
    1.8024   -1.8474    0.0000 O   0  0  0  0  0  0  0  0  0  0  0  0
   -0.2040   -2.4471    0.0000 C   0  0  0  0  0  0  0  0  0  0  0  0
   -0.9158   -2.8642    0.0000 C   0  0  0  0  0  0  0  0  0  0  0  0
   -0.9104   -3.6908    0.0000 C   0  0  0  0  0  0  0  0  0  0  0  0
   -0.1873   -4.0984    0.0000 C   0  0  0  0  0  0  0  0  0  0  0  0
    0.5213   -3.6788    0.0000 C   0  0  0  0  0  0  0  0  0  0  0  0
   -1.6219   -4.1097    0.0000 N   0  0  0  0  0  0  0  0  0  0  0  0
  1 10  1  0
  5  1  2  0
 10 11  1  0
  1  2  1  0
 11 12  1  0
  3  6  1  0
 11 13  2  0
 11 14  2  0
  6  7  1  0
 12 15  2  0
  2  3  1  0
 15 16  1  0
  6  8  2  0
 16 17  2  0
  3  4  2  0
 17 18  1  0
  6  9  2  0
 18 19  2  0
 19 12  1  0
  4  5  1  0
 17 20  1  0
M  END

> <chembl_id>
CHEMBL268439

> <chembl_pref_name>
None

$$$$

     RDKit          2D

 26 28  0  0  0  0  0  0  0  0999 V2000
    4.3875   -1.3542    0.0000 C   0  0  0  0  0  0  0  0  0  0  0  0
    4.9167   -0.7292    0.0000 C   0  0  0  0  0  0  0  0  0  0  0  0
    3.6167   -1.0375    0.0000 N   0  0  0  0  0  0  0  0  0  0  0  0
    2.7542   -2.2500    0.0000 C   0  0  0  0  0  0  0  0  0  0  0  0
    4.4917   -0.0292    0.0000 N   0  0  0  0  0  0  0  0  0  0  0  0
    3.3000   -2.8625    0.0000 C   0  0  0  0  0  0  0  0  0  0  0  0
    2.9000   -1.4292    0.0000 C   0  0  0  0  0  0  0  0  0  0  0  0
    4.1125   -2.8125    0.0000 N   0  0  0  0  0  0  0  0  0  0  0  0
    3.6875   -0.2167    0.0000 C   0  0  0  0  0  0  0  0  0  0  0  0
    0.5750   -2.2917    0.0000 N   0  0  0  0  0  0  0  0  0  0  0  0
    5.7417   -0.7792    0.0000 C   0  0  0  0  0  0  0  0  0  0  0  0
    4.5917   -2.1417    0.0000 C   0  0  0  0  0  0  0  0  0  0  0  0
    1.9792   -2.5375    0.0000 C   0  0  0  0  0  0  0  0  0  0  0  0
    1.3417   -2.0125    0.0000 C   0  0  0  0  0  0  0  0  0  0  0  0
    6.1125   -1.5250    0.0000 O   0  0  0  0  0  0  0  0  0  0  0  0
    2.2542   -0.9042    0.0000 C   0  0  0  0  0  0  0  0  0  0  0  0
   -0.0708   -1.7667    0.0000 O   0  0  0  0  0  0  0  0  0  0  0  0
    0.4292   -3.1125    0.0000 O   0  0  0  0  0  0  0  0  0  0  0  0
    2.9875   -3.6292    0.0000 O   0  0  0  0  0  0  0  0  0  0  0  0
    6.2042   -0.0917    0.0000 O   0  0  0  0  0  0  0  0  0  0  0  0
    1.4792   -1.1917    0.0000 C   0  0  0  0  0  0  0  0  0  0  0  0
    6.9292   -1.5750    0.0000 C   0  0  0  0  0  0  0  0  0  0  0  0
    4.5042   -3.5417    0.0000 C   0  0  0  0  0  0  0  0  0  0  0  0
    7.7542   -1.5750    0.0000 C   0  0  0  0  0  0  0  0  0  0  0  0
    7.3000   -2.3167    0.0000 C   0  0  0  0  0  0  0  0  0  0  0  0
    7.3917   -0.8875    0.0000 C   0  0  0  0  0  0  0  0  0  0  0  0
  2  1  2  0
  3  1  1  0
  4  7  2  0
  5  2  1  0
  6  8  1  0
  7  3  1  0
  8 12  1  0
  9  3  1  0
 10 14  1  0
 11  2  1  0
 12  1  1  0
 13  4  1  0
 14 21  1  0
 15 11  1  0
 16  7  1  0
 17 10  1  0
 18 10  2  0
 19  6  2  0
 20 11  2  0
 21 16  2  0
 22 15  1  0
 23  8  1  0
 24 22  1  0
 25 22  1  0
 26 22  1  0
  5  9  2  0
  4  6  1  0
 14 13  2  0
M  CHG  2  10   1  17  -1
M  END

> <chembl_id>
CHEMBL7290

> <chembl_pref_name>
None

$$$$

     RDKit          2D

 25 27  0  0  0  0  0  0  0  0999 V2000
    3.9875   -4.0917    0.0000 S   0  0  0  0  0  0  0  0  0  0  0  0
    4.6917   -4.5042    0.0000 N   0  0  0  0  0  0  0  0  0  0  0  0
    3.9875   -3.2667    0.0000 C   0  0  0  0  0  0  0  0  0  0  0  0
    3.2625   -2.8542    0.0000 C   0  0  0  0  0  0  0  0  0  0  0  0
    3.2625   -2.0250    0.0000 C   0  0  0  0  0  0  0  0  0  0  0  0
    5.4167   -4.0792    0.0000 C   0  0  0  0  0  0  0  0  0  0  0  0
    2.5417   -1.6042    0.0000 C   0  0  0  0  0  0  0  0  0  0  0  0
    5.4042   -3.2542    0.0000 N   0  0  0  0  0  0  0  0  0  0  0  0
    6.1292   -2.8375    0.0000 N   0  0  0  0  0  0  0  0  0  0  0  0
    8.2792   -2.4167    0.0000 N   0  0  0  0  0  0  0  0  0  0  0  0
    3.9792   -4.9250    0.0000 O   0  0  0  0  0  0  0  0  0  0  0  0
    3.1542   -4.0792    0.0000 O   0  0  0  0  0  0  0  0  0  0  0  0
    7.5625   -2.8292    0.0000 C   0  0  0  0  0  0  0  0  0  0  0  0
    6.8417   -3.2417    0.0000 C   0  0  0  0  0  0  0  0  0  0  0  0
    2.5417   -0.7792    0.0000 N   0  0  0  0  0  0  0  0  0  0  0  0
    6.1292   -4.5000    0.0000 C   0  0  0  0  0  0  0  0  0  0  0  0
    6.8417   -4.0792    0.0000 C   0  0  0  0  0  0  0  0  0  0  0  0
    4.6917   -2.8500    0.0000 C   0  0  0  0  0  0  0  0  0  0  0  0
    2.5417   -3.2667    0.0000 C   0  0  0  0  0  0  0  0  0  0  0  0
    3.9792   -1.6042    0.0000 C   0  0  0  0  0  0  0  0  0  0  0  0
    1.8375   -2.0250    0.0000 C   0  0  0  0  0  0  0  0  0  0  0  0
    4.6917   -2.0167    0.0000 C   0  0  0  0  0  0  0  0  0  0  0  0
    1.8375   -2.8542    0.0000 C   0  0  0  0  0  0  0  0  0  0  0  0
    1.8250   -0.3625    0.0000 C   0  0  0  0  0  0  0  0  0  0  0  0
    3.2625   -0.3542    0.0000 C   0  0  0  0  0  0  0  0  0  0  0  0
  2  1  1  0
  3  1  1  0
  4  3  1  0
  5  4  2  0
  6  2  1  0
  7  5  1  0
  8  6  2  0
  9  8  1  0
 10 13  3  0
 11  1  2  0
 12  1  2  0
 13 14  1  0
 14 17  1  0
 15  7  1  0
 16  6  1  0
 17 16  2  0
 18  3  2  0
 19  4  1  0
 20 22  2  0
 21 23  1  0
 22 18  1  0
 23 19  2  0
 24 15  1  0
 25 15  1  0
 20  5  1  0
 21  7  2  0
 14  9  2  0
M  END

> <chembl_id>
CHEMBL6668

> <chembl_pref_name>
None

$$$$

     RDKit          2D

 14 16  0  0  0  0  0  0  0  0999 V2000
    4.8917   -2.0292    0.0000 C   0  0  0  0  0  0  0  0  0  0  0  0
    4.8917   -2.8542    0.0000 C   0  0  0  0  0  0  0  0  0  0  0  0
    3.4542   -2.0250    0.0000 C   0  0  0  0  0  0  0  0  0  0  0  0
    4.1667   -3.2667    0.0000 N   0  0  0  0  0  0  0  0  0  0  0  0
    3.4542   -2.8500    0.0000 C   0  0  0  0  0  0  0  0  0  0  0  0
    4.6417   -1.2417    0.0000 S   0  0  0  0  0  0  0  0  0  0  0  0
    5.7167   -2.0292    0.0000 O   0  0  0  0  0  0  0  0  0  0  0  0
    5.6042   -3.2667    0.0000 O   0  0  0  0  0  0  0  0  0  0  0  0
    2.7417   -1.6125    0.0000 C   0  0  0  0  0  0  0  0  0  0  0  0
    2.7417   -3.2667    0.0000 C   0  0  0  0  0  0  0  0  0  0  0  0
    5.3042   -0.7542    0.0000 C   0  0  0  0  0  0  0  0  0  0  0  0
    5.9750   -1.2417    0.0000 C   0  0  0  0  0  0  0  0  0  0  0  0
    2.0292   -2.0250    0.0000 C   0  0  0  0  0  0  0  0  0  0  0  0
    2.0292   -2.8542    0.0000 C   0  0  0  0  0  0  0  0  0  0  0  0
  2  1  1  0
  3  1  1  0
  4  2  1  0
  5  3  1  0
  6  1  1  0
  7  1  1  0
  8  2  2  0
  9  3  2  0
 10  5  2  0
 11  6  1  0
 12  7  1  0
 13  9  1  0
 14 13  2  0
 11 12  1  0
  4  5  1  0
 14 10  1  0
M  END

> <chembl_id>
CHEMBL402580

> <chembl_pref_name>
None

$$$$

     RDKit          2D

 14 16  0  0  0  0  0  0  0  0999 V2000
    4.8917   -2.0292    0.0000 C   0  0  0  0  0  0  0  0  0  0  0  0
    4.8917   -2.8542    0.0000 C   0  0  0  0  0  0  0  0  0  0  0  0
    3.4542   -2.0250    0.0000 C   0  0  0  0  0  0  0  0  0  0  0  0
    4.1667   -3.2667    0.0000 N   0  0  0  0  0  0  0  0  0  0  0  0
    3.4542   -2.8500    0.0000 C   0  0  0  0  0  0  0  0  0  0  0  0
    5.7167   -2.0292    0.0000 S   0  0  0  0  0  0  0  0  0  0  0  0
    4.6417   -1.2417    0.0000 S   0  0  0  0  0  0  0  0  0  0  0  0
    5.6042   -3.2667    0.0000 O   0  0  0  0  0  0  0  0  0  0  0  0
    2.7417   -1.6125    0.0000 C   0  0  0  0  0  0  0  0  0  0  0  0
    2.7417   -3.2667    0.0000 C   0  0  0  0  0  0  0  0  0  0  0  0
    5.9750   -1.2417    0.0000 C   0  0  0  0  0  0  0  0  0  0  0  0
    5.3042   -0.7542    0.0000 C   0  0  0  0  0  0  0  0  0  0  0  0
    2.0292   -2.0250    0.0000 C   0  0  0  0  0  0  0  0  0  0  0  0
    2.0292   -2.8542    0.0000 C   0  0  0  0  0  0  0  0  0  0  0  0
  2  1  1  0
  3  1  1  0
  4  2  1  0
  5  3  1  0
  6  1  1  0
  7  1  1  0
  8  2  2  0
  9  3  2  0
 10  5  2  0
 11  6  1  0
 12  7  1  0
 13  9  1  0
 14 13  2  0
 12 11  1  0
  4  5  1  0
 14 10  1  0
M  END

> <chembl_id>
CHEMBL6798

> <chembl_pref_name>
None

$$$$

     RDKit          2D

 12 12  0  0  0  0  0  0  0  0999 V2000
    5.4500   -3.5917    0.0000 C   0  0  0  0  0  0  0  0  0  0  0  0
    4.0292   -3.5917    0.0000 N   0  0  0  0  0  0  0  0  0  0  0  0
    4.7375   -3.1750    0.0000 C   0  0  0  0  0  0  0  0  0  0  0  0
    6.1667   -3.1792    0.0000 C   0  0  0  0  0  0  0  0  0  0  0  0
    4.0292   -4.4167    0.0000 N   0  0  0  0  0  0  0  0  0  0  0  0
    5.4500   -4.4167    0.0000 C   0  0  0  0  0  0  0  0  0  0  0  0
    4.7375   -4.8250    0.0000 C   0  0  0  0  0  0  0  0  0  0  0  0
    6.1667   -2.3542    0.0000 O   0  0  0  0  0  0  0  0  0  0  0  0
    6.8792   -3.5917    0.0000 N   0  0  0  0  0  0  0  0  0  0  0  0
    4.7375   -2.3500    0.0000 Cl  0  0  0  0  0  0  0  0  0  0  0  0
    4.7375   -5.6500    0.0000 Cl  0  0  0  0  0  0  0  0  0  0  0  0
    7.5917   -3.1792    0.0000 C   0  0  0  0  0  0  0  0  0  0  0  0
  2  3  2  0
  3  1  1  0
  4  1  1  0
  5  7  2  0
  6  1  2  0
  7  6  1  0
  8  4  2  0
  9  4  1  0
 10  3  1  0
 11  7  1  0
 12  9  1  0
  2  5  1  0
M  END

> <chembl_id>
CHEMBL267835

> <chembl_pref_name>
None

$$$$

     RDKit          2D

 17 19  0  0  0  0  0  0  0  0999 V2000
    2.6347   -5.4215    0.0000 N   0  0  0  0  0  0  0  0  0  0  0  0
    3.3469   -5.0051    0.0000 C   0  0  0  0  0  0  0  0  0  0  0  0
    4.0630   -5.4138    0.0000 N   0  0  0  0  0  0  0  0  0  0  0  0
    2.6270   -3.7675    0.0000 N   0  0  0  0  0  0  0  0  0  0  0  0
    1.9148   -4.1839    0.0000 C   0  0  0  0  0  0  0  0  0  0  0  0
    1.9148   -5.0051    0.0000 C   0  0  0  0  0  0  0  0  0  0  0  0
    1.2025   -3.7675    0.0000 C   0  0  0  0  0  0  0  0  0  0  0  0
    3.3392   -4.1762    0.0000 C   0  0  0  0  0  0  0  0  0  0  0  0
    5.4875   -6.2310    0.0000 N   0  0  0  0  0  0  0  0  0  0  0  0
    1.2025   -5.4254    0.0000 C   0  0  0  0  0  0  0  0  0  0  0  0
    0.4903   -4.1839    0.0000 C   0  0  0  0  0  0  0  0  0  0  0  0
    0.4903   -5.0129    0.0000 C   0  0  0  0  0  0  0  0  0  0  0  0
   -0.2258   -3.7675    0.0000 Cl  0  0  0  0  0  0  0  0  0  0  0  0
    4.7713   -4.9934    0.0000 C   0  0  0  0  0  0  0  0  0  0  0  0
    4.0630   -6.2388    0.0000 C   0  0  0  0  0  0  0  0  0  0  0  0
    4.7753   -6.6474    0.0000 C   0  0  0  0  0  0  0  0  0  0  0  0
    5.4875   -5.4098    0.0000 C   0  0  0  0  0  0  0  0  0  0  0  0
  2  1  2  0
  3  2  1  0
  4  5  1  0
  5  6  1  0
  6  1  1  0
  7  5  2  0
  8  2  1  0
  9 16  1  0
 10  6  2  0
 11 12  2  0
 12 10  1  0
 13 11  1  0
 14  3  1  0
 15  3  1  0
 16 15  1  0
 17 14  1  0
  4  8  2  0
 11  7  1  0
 17  9  1  0
M  END

> <chembl_id>
CHEMBL6670

> <chembl_pref_name>
None

$$$$

     RDKit          2D

 14 14  0  0  0  0  0  0  0  0999 V2000
    6.9167   -4.4417    0.0000 Cl  0  0  0  0  0  0  0  0  0  0  0  0
    4.5417   -2.4167    0.0000 C   0  0  0  0  0  0  0  0  0  0  0  0
    5.3667   -2.9417    0.0000 N   0  0  0  0  0  0  0  0  0  0  0  0
    5.1417   -2.3792    0.0000 C   0  0  0  0  0  0  0  0  0  0  0  0
    4.3917   -3.0000    0.0000 C   0  0  0  0  0  0  0  0  0  0  0  0
    3.5417   -2.1542    0.0000 N   0  0  0  0  0  0  0  0  0  0  0  0
    4.9042   -3.3250    0.0000 O   0  0  0  0  0  0  0  0  0  0  0  0
    4.1167   -1.9917    0.0000 C   0  0  0  0  0  0  0  0  0  0  0  0
    3.8167   -3.1542    0.0000 C   0  0  0  0  0  0  0  0  0  0  0  0
    3.3875   -2.7375    0.0000 C   0  0  0  0  0  0  0  0  0  0  0  0
    5.4417   -1.8625    0.0000 O   0  0  0  0  0  0  0  0  0  0  0  0
    3.5292   -1.5500    0.0000 C   0  0  0  0  0  0  0  0  0  0  0  0
    6.0417   -1.8542    0.0000 C   0  0  0  0  0  0  0  0  0  0  0  0
    6.3417   -2.3667    0.0000 C   0  0  0  0  0  0  0  0  0  0  0  0
  3  4  2  0
  4  2  1  0
  5  2  2  0
  6  8  1  0
  7  5  1  0
  8  2  1  0
  9  5  1  0
 10  6  1  0
 11  4  1  0
 12  6  1  0
 13 11  1  0
 14 13  1  0
  3  7  1  0
 10  9  1  0
M  END

> <chembl_id>
CHEMBL269706

> <chembl_pref_name>
None

$$$$

     RDKit          2D

 13 13  0  0  0  0  0  0  0  0999 V2000
    7.6008   -2.9213    0.0000 C   0  0  0  0  0  0  0  0  0  0  0  0
    7.6016   -3.7482    0.0000 C   0  0  0  0  0  0  0  0  0  0  0  0
    8.3169   -4.1591    0.0000 C   0  0  0  0  0  0  0  0  0  0  0  0
    9.0319   -3.7444    0.0000 C   0  0  0  0  0  0  0  0  0  0  0  0
    9.0271   -2.9144    0.0000 C   0  0  0  0  0  0  0  0  0  0  0  0
    8.3112   -2.5072    0.0000 C   0  0  0  0  0  0  0  0  0  0  0  0
    8.3069   -1.6822    0.0000 S   0  0  0  0  0  0  0  0  0  0  0  0
    9.0191   -1.2659    0.0000 N   0  0  0  0  0  0  0  0  0  0  0  0
    7.5042   -1.8917    0.0000 O   0  0  0  0  0  0  0  0  0  0  0  0
    8.0875   -0.8792    0.0000 O   0  0  0  0  0  0  0  0  0  0  0  0
    8.3186   -4.9841    0.0000 C   0  0  0  0  0  0  0  0  0  0  0  0
    7.6054   -5.3990    0.0000 O   0  0  0  0  0  0  0  0  0  0  0  0
    9.0343   -5.3961    0.0000 O   0  0  0  0  0  0  0  0  0  0  0  0
  1  2  2  0
  6  7  1  0
  3  4  2  0
  7  8  1  0
  7  9  2  0
  4  5  1  0
  7 10  2  0
  2  3  1  0
  3 11  1  0
  5  6  2  0
  6  1  1  0
 11 12  1  0
 11 13  2  0
M  END

> <chembl_id>
CHEMBL414

> <chembl_pref_name>
CARZENIDE

$$$$

     RDKit          2D

 13 13  0  0  0  0  0  0  0  0999 V2000
   -4.7764   -8.7083    0.0000 C   0  0  0  0  0  0  0  0  0  0  0  0
   -4.7776   -9.5357    0.0000 C   0  0  0  0  0  0  0  0  0  0  0  0
   -4.0628   -9.9485    0.0000 C   0  0  0  0  0  0  0  0  0  0  0  0
   -3.3463   -9.5352    0.0000 C   0  0  0  0  0  0  0  0  0  0  0  0
   -3.3492   -8.7047    0.0000 C   0  0  0  0  0  0  0  0  0  0  0  0
   -4.0646   -8.2955    0.0000 C   0  0  0  0  0  0  0  0  0  0  0  0
   -4.0670   -7.4705    0.0000 S   0  0  0  0  0  0  0  0  0  0  0  0
   -3.3538   -7.0559    0.0000 N   0  0  0  0  0  0  0  0  0  0  0  0
   -4.8708   -7.6792    0.0000 O   0  0  0  0  0  0  0  0  0  0  0  0
   -4.4875   -6.7500    0.0000 O   0  0  0  0  0  0  0  0  0  0  0  0
   -4.0630  -10.7735    0.0000 C   0  0  0  0  0  0  0  0  0  0  0  0
   -4.7775  -11.1859    0.0000 C   0  0  0  0  0  0  0  0  0  0  0  0
   -4.7778  -12.0109    0.0000 O   0  0  0  0  0  0  0  0  0  0  0  0
  1  2  2  0
  6  7  1  0
  3  4  2  0
  7  8  1  0
  7  9  2  0
  4  5  1  0
  7 10  2  0
  2  3  1  0
  3 11  1  0
  5  6  2  0
 11 12  1  0
  6  1  1  0
 12 13  1  0
M  END

> <chembl_id>
CHEMBL6784

> <chembl_pref_name>
None

$$$$

     RDKit          2D

 24 26  0  0  0  0  0  0  0  0999 V2000
    4.3875   -1.3542    0.0000 C   0  0  0  0  0  0  0  0  0  0  0  0
    4.9167   -0.7292    0.0000 C   0  0  0  0  0  0  0  0  0  0  0  0
    3.6167   -1.0375    0.0000 N   0  0  0  0  0  0  0  0  0  0  0  0
    2.7542   -2.2500    0.0000 C   0  0  0  0  0  0  0  0  0  0  0  0
    4.4917   -0.0292    0.0000 N   0  0  0  0  0  0  0  0  0  0  0  0
    3.3000   -2.8625    0.0000 C   0  0  0  0  0  0  0  0  0  0  0  0
    2.9000   -1.4292    0.0000 C   0  0  0  0  0  0  0  0  0  0  0  0
    4.1125   -2.8125    0.0000 N   0  0  0  0  0  0  0  0  0  0  0  0
    3.6875   -0.2167    0.0000 C   0  0  0  0  0  0  0  0  0  0  0  0
    5.7417   -0.7792    0.0000 C   0  0  0  0  0  0  0  0  0  0  0  0
    4.5917   -2.1417    0.0000 C   0  0  0  0  0  0  0  0  0  0  0  0
    6.1125   -1.5250    0.0000 O   0  0  0  0  0  0  0  0  0  0  0  0
    1.9792   -2.5375    0.0000 C   0  0  0  0  0  0  0  0  0  0  0  0
    2.2542   -0.9042    0.0000 C   0  0  0  0  0  0  0  0  0  0  0  0
    2.9875   -3.6292    0.0000 O   0  0  0  0  0  0  0  0  0  0  0  0
    6.2042   -0.0917    0.0000 O   0  0  0  0  0  0  0  0  0  0  0  0
    6.9292   -1.5750    0.0000 C   0  0  0  0  0  0  0  0  0  0  0  0
    1.3417   -2.0125    0.0000 C   0  0  0  0  0  0  0  0  0  0  0  0
    1.4792   -1.1917    0.0000 C   0  0  0  0  0  0  0  0  0  0  0  0
    4.5042   -3.5417    0.0000 C   0  0  0  0  0  0  0  0  0  0  0  0
    0.5750   -2.2917    0.0000 I   0  0  0  0  0  0  0  0  0  0  0  0
    7.3000   -2.3167    0.0000 C   0  0  0  0  0  0  0  0  0  0  0  0
    7.3917   -0.8875    0.0000 C   0  0  0  0  0  0  0  0  0  0  0  0
    7.7542   -1.5750    0.0000 C   0  0  0  0  0  0  0  0  0  0  0  0
  2  1  2  0
  3  1  1  0
  4  7  2  0
  5  2  1  0
  6  8  1  0
  7  3  1  0
  8 11  1  0
  9  3  1  0
 10  2  1  0
 11  1  1  0
 12 10  1  0
 13  4  1  0
 14  7  1  0
 15  6  2  0
 16 10  2  0
 17 12  1  0
 18 19  1  0
 19 14  2  0
 20  8  1  0
 21 18  1  0
 22 17  1  0
 23 17  1  0
 24 17  1  0
  5  9  2  0
  4  6  1  0
 18 13  2  0
M  END

> <chembl_id>
CHEMBL6659

> <chembl_pref_name>
None

$$$$

     RDKit          2D

 24 27  0  0  0  0  0  0  0  0999 V2000
    6.2542   -5.9375    0.0000 C   0  0  0  0  0  0  0  0  0  0  0  0
    5.4875   -5.6167    0.0000 N   0  0  0  0  0  0  0  0  0  0  0  0
    6.7875   -5.3042    0.0000 C   0  0  0  0  0  0  0  0  0  0  0  0
    4.6250   -6.8292    0.0000 C   0  0  0  0  0  0  0  0  0  0  0  0
    5.1667   -7.4417    0.0000 C   0  0  0  0  0  0  0  0  0  0  0  0
    5.9875   -7.3875    0.0000 N   0  0  0  0  0  0  0  0  0  0  0  0
    6.3542   -4.6042    0.0000 N   0  0  0  0  0  0  0  0  0  0  0  0
    4.7667   -6.0125    0.0000 C   0  0  0  0  0  0  0  0  0  0  0  0
    6.4542   -6.7250    0.0000 C   0  0  0  0  0  0  0  0  0  0  0  0
    5.5542   -4.7917    0.0000 C   0  0  0  0  0  0  0  0  0  0  0  0
    7.6125   -5.3625    0.0000 C   0  0  0  0  0  0  0  0  0  0  0  0
    3.8500   -7.1167    0.0000 C   0  0  0  0  0  0  0  0  0  0  0  0
    4.1292   -5.4792    0.0000 C   0  0  0  0  0  0  0  0  0  0  0  0
    4.8542   -8.2125    0.0000 O   0  0  0  0  0  0  0  0  0  0  0  0
    8.0750   -4.6667    0.0000 O   0  0  0  0  0  0  0  0  0  0  0  0
    6.4750   -8.0417    0.0000 C   0  0  0  0  0  0  0  0  0  0  0  0
    3.2125   -6.5917    0.0000 C   0  0  0  0  0  0  0  0  0  0  0  0
    3.3500   -5.7667    0.0000 C   0  0  0  0  0  0  0  0  0  0  0  0
    7.2292   -6.9667    0.0000 C   0  0  0  0  0  0  0  0  0  0  0  0
    7.9792   -6.1042    0.0000 O   0  0  0  0  0  0  0  0  0  0  0  0
    2.4417   -6.8750    0.0000 Cl  0  0  0  0  0  0  0  0  0  0  0  0
    7.2417   -7.7792    0.0000 C   0  0  0  0  0  0  0  0  0  0  0  0
    8.8000   -6.1542    0.0000 C   0  0  0  0  0  0  0  0  0  0  0  0
    9.1667   -6.8917    0.0000 C   0  0  0  0  0  0  0  0  0  0  0  0
  2  1  1  0
  3  1  2  0
  4  8  2  0
  5  6  1  0
  6  9  1  0
  7  3  1  0
  8  2  1  0
  9  1  1  0
 10  2  1  0
 11  3  1  0
 12  4  1  0
 13  8  1  0
 14  5  2  0
 15 11  2  0
 16  6  1  0
 17 18  1  0
 18 13  2  0
 19  9  1  0
 20 11  1  0
 21 17  1  0
 22 19  1  0
 23 20  1  0
 24 23  1  0
  7 10  2  0
 16 22  1  0
  4  5  1  0
 17 12  2  0
M  END

> <chembl_id>
CHEMBL269705

> <chembl_pref_name>
RO-145975

$$$$

     RDKit          2D

 27 29  0  0  0  0  0  0  0  0999 V2000
    7.5750   -6.6917    0.0000 C   0  0  0  0  0  0  0  0  0  0  0  0
    7.0875   -7.0417    0.0000 N   0  0  0  0  0  0  0  0  0  0  0  0
    8.0542   -7.0417    0.0000 O   0  0  0  0  0  0  0  0  0  0  0  0
    4.8167   -6.2667    0.0000 C   0  0  0  0  0  0  0  0  0  0  0  0
    3.7125   -5.5167    0.0000 C   0  0  0  0  0  0  0  0  0  0  0  0
    4.7667   -5.6792    0.0000 C   0  0  0  0  0  0  0  0  0  0  0  0
    4.3792   -6.6792    0.0000 C   0  0  0  0  0  0  0  0  0  0  0  0
    4.2750   -5.3417    0.0000 C   0  0  0  0  0  0  0  0  0  0  0  0
    3.4917   -6.0792    0.0000 C   0  0  0  0  0  0  0  0  0  0  0  0
    3.7917   -6.6000    0.0000 C   0  0  0  0  0  0  0  0  0  0  0  0
    6.5167   -6.8542    0.0000 C   0  0  0  0  0  0  0  0  0  0  0  0
    7.8750   -7.6167    0.0000 C   0  0  0  0  0  0  0  0  0  0  0  0
    7.2750   -7.6167    0.0000 C   0  0  0  0  0  0  0  0  0  0  0  0
    7.5667   -6.0917    0.0000 O   0  0  0  0  0  0  0  0  0  0  0  0
    8.3292   -9.1292    0.0000 C   0  0  0  0  0  0  0  0  0  0  0  0
    5.3792   -6.4875    0.0000 C   0  0  0  0  0  0  0  0  0  0  0  0
    7.9792   -8.6500    0.0000 N   0  0  0  0  0  0  0  0  0  0  0  0
    2.8917   -6.1417    0.0000 O   0  0  0  0  0  0  0  0  0  0  0  0
    8.0917   -9.6792    0.0000 O   0  0  0  0  0  0  0  0  0  0  0  0
    6.0750   -7.2542    0.0000 C   0  0  0  0  0  0  0  0  0  0  0  0
    6.3917   -6.2667    0.0000 C   0  0  0  0  0  0  0  0  0  0  0  0
    5.8250   -6.0792    0.0000 C   0  0  0  0  0  0  0  0  0  0  0  0
    5.5042   -7.0750    0.0000 C   0  0  0  0  0  0  0  0  0  0  0  0
    3.3000   -5.0792    0.0000 N   0  0  0  0  0  0  0  0  0  0  0  0
    8.2250   -8.1000    0.0000 C   0  0  0  0  0  0  0  0  0  0  0  0
    8.9292   -9.0667    0.0000 C   0  0  0  0  0  0  0  0  0  0  0  0
    3.4750   -4.5042    0.0000 C   0  0  0  0  0  0  0  0  0  0  0  0
  2  1  1  0
  3  1  1  0
  4 16  1  0
  5  8  1  0
  6  4  1  0
  7  4  2  0
  8  6  2  0
  9 10  2  0
 10  7  1  0
 11  2  1  0
 12  3  1  0
 13  2  1  0
 14  1  2  0
 15 17  1  0
 16 22  1  0
 17 25  1  0
 18  9  1  0
 19 15  2  0
 20 11  2  0
 21 11  1  0
 22 21  2  0
 23 20  1  0
 24  5  2  0
 25 12  1  0
 26 15  1  0
 27 24  1  0
 13 12  1  0
 23 16  2  0
  5  9  1  0
M  END

> <chembl_id>
CHEMBL6839

> <chembl_pref_name>
None

$$$$

     RDKit          2D

 26 28  0  0  0  0  0  0  0  0999 V2000
    9.4167   -2.7000    0.0000 S   0  0  0  0  0  0  0  0  0  0  0  0
    5.7167   -2.1167    0.0000 N   0  0  0  0  0  0  0  0  0  0  0  0
    8.9917   -1.9917    0.0000 C   0  0  0  0  0  0  0  0  0  0  0  0
    5.2000   -1.4792    0.0000 C   0  0  0  0  0  0  0  0  0  0  0  0
    6.5417   -2.0792    0.0000 N   0  0  0  0  0  0  0  0  0  0  0  0
    6.9167   -1.3417    0.0000 C   0  0  0  0  0  0  0  0  0  0  0  0
    4.4292   -1.7792    0.0000 C   0  0  0  0  0  0  0  0  0  0  0  0
    8.1667   -2.0125    0.0000 C   0  0  0  0  0  0  0  0  0  0  0  0
    4.9792   -0.6792    0.0000 C   0  0  0  0  0  0  0  0  0  0  0  0
    5.2667   -2.8167    0.0000 C   0  0  0  0  0  0  0  0  0  0  0  0
    4.4750   -2.6000    0.0000 C   0  0  0  0  0  0  0  0  0  0  0  0
    7.7375   -1.3042    0.0000 C   0  0  0  0  0  0  0  0  0  0  0  0
    9.3917   -1.2667    0.0000 C   0  0  0  0  0  0  0  0  0  0  0  0
    9.0250   -3.4167    0.0000 O   0  0  0  0  0  0  0  0  0  0  0  0
   10.2417   -2.6792    0.0000 O   0  0  0  0  0  0  0  0  0  0  0  0
    9.8292   -3.4125    0.0000 N   0  0  0  0  0  0  0  0  0  0  0  0
    6.4667   -0.6500    0.0000 O   0  0  0  0  0  0  0  0  0  0  0  0
    5.5625   -0.0917    0.0000 O   0  0  0  0  0  0  0  0  0  0  0  0
    8.1375   -0.5792    0.0000 C   0  0  0  0  0  0  0  0  0  0  0  0
    8.9625   -0.5625    0.0000 C   0  0  0  0  0  0  0  0  0  0  0  0
    4.1792   -0.4667    0.0000 O   0  0  0  0  0  0  0  0  0  0  0  0
   10.2167   -1.2417    0.0000 Cl  0  0  0  0  0  0  0  0  0  0  0  0
    3.7375   -1.3375    0.0000 C   0  0  0  0  0  0  0  0  0  0  0  0
    3.6667   -2.9875    0.0000 C   0  0  0  0  0  0  0  0  0  0  0  0
    3.0042   -1.7167    0.0000 C   0  0  0  0  0  0  0  0  0  0  0  0
    2.9667   -2.5417    0.0000 C   0  0  0  0  0  0  0  0  0  0  0  0
  2  5  1  0
  3  1  1  0
  4  2  1  0
  5  6  1  0
  6 12  1  0
  7  4  1  0
  8  3  2  0
  9  4  1  0
 10  2  1  0
 11 10  1  0
 12  8  1  0
 13  3  1  0
 14  1  2  0
 15  1  2  0
 16  1  1  0
 17  6  2  0
 18  9  2  0
 19 20  1  0
 20 13  2  0
 21  9  1  0
 22 13  1  0
 23  7  1  0
 24 11  1  0
 25 23  2  0
 26 24  2  0
 19 12  2  0
 11  7  2  0
 26 25  1  0
M  END

> <chembl_id>
CHEMBL6849

> <chembl_pref_name>
None

$$$$

     RDKit          2D

 10 10  0  0  0  0  0  0  0  0999 V2000
    4.4792   -0.8042    0.0000 N   0  0  0  0  0  0  0  0  0  0  0  0
    3.7625   -0.3917    0.0000 N   0  0  0  0  0  0  0  0  0  0  0  0
    5.1917   -1.2167    0.0000 O   0  0  0  0  0  0  0  0  0  0  0  0
    3.0500   -0.8125    0.0000 C   0  0  0  0  0  0  0  0  0  0  0  0
    3.7542    0.4333    0.0000 C   0  0  0  0  0  0  0  0  0  0  0  0
    3.0500   -1.6417    0.0000 C   0  0  0  0  0  0  0  0  0  0  0  0
    2.3292   -0.4000    0.0000 C   0  0  0  0  0  0  0  0  0  0  0  0
    2.3292   -2.0542    0.0000 C   0  0  0  0  0  0  0  0  0  0  0  0
    1.6167   -0.8125    0.0000 C   0  0  0  0  0  0  0  0  0  0  0  0
    1.6167   -1.6417    0.0000 C   0  0  0  0  0  0  0  0  0  0  0  0
  2  1  1  0
  3  1  2  0
  4  2  1  0
  5  2  1  0
  6  4  1  0
  7  4  2  0
  8  6  2  0
  9  7  1  0
 10  9  2  0
 10  8  1  0
M  END

> <chembl_id>
CHEMBL266169

> <chembl_pref_name>
None

$$$$

     RDKit          2D

 12 12  0  0  0  0  0  0  0  0999 V2000
    0.8148   -9.1035    0.0000 C   0  0  0  0  0  0  0  0  0  0  0  0
    0.8137   -9.9305    0.0000 C   0  0  0  0  0  0  0  0  0  0  0  0
    1.5281  -10.3430    0.0000 C   0  0  0  0  0  0  0  0  0  0  0  0
    2.2441   -9.9300    0.0000 C   0  0  0  0  0  0  0  0  0  0  0  0
    2.2413   -9.0999    0.0000 C   0  0  0  0  0  0  0  0  0  0  0  0
    1.5263   -8.6909    0.0000 C   0  0  0  0  0  0  0  0  0  0  0  0
    1.5238   -7.8664    0.0000 S   0  0  0  0  0  0  0  0  0  0  0  0
    2.2367   -7.4520    0.0000 N   0  0  0  0  0  0  0  0  0  0  0  0
    0.7204   -8.0749    0.0000 O   0  0  0  0  0  0  0  0  0  0  0  0
    1.1036   -7.1462    0.0000 O   0  0  0  0  0  0  0  0  0  0  0  0
    1.5279  -11.1676    0.0000 C   0  0  0  0  0  0  0  0  0  0  0  0
    0.8137  -11.5798    0.0000 O   0  0  0  0  0  0  0  0  0  0  0  0
  6  1  1  0
  1  2  2  0
  6  7  1  0
  3  4  2  0
  7  8  1  0
  7  9  2  0
  4  5  1  0
  7 10  2  0
  2  3  1  0
  3 11  1  0
  5  6  2  0
 11 12  1  0
M  END

> <chembl_id>
CHEMBL6919

> <chembl_pref_name>
None

$$$$

     RDKit          2D

 19 21  0  0  0  0  0  0  0  0999 V2000
    2.4292   -2.0792    0.0000 N   0  0  0  0  0  0  0  0  0  0  0  0
    1.6417   -1.0000    0.0000 C   0  0  0  0  0  0  0  0  0  0  0  0
    1.6417   -1.8250    0.0000 C   0  0  0  0  0  0  0  0  0  0  0  0
    2.4292   -0.7417    0.0000 N   0  0  0  0  0  0  0  0  0  0  0  0
    2.9167   -1.4125    0.0000 C   0  0  0  0  0  0  0  0  0  0  0  0
    0.9292   -0.5875    0.0000 C   0  0  0  0  0  0  0  0  0  0  0  0
    0.9292   -2.2417    0.0000 N   0  0  0  0  0  0  0  0  0  0  0  0
    0.2167   -1.0000    0.0000 N   0  0  0  0  0  0  0  0  0  0  0  0
    2.6875   -2.8667    0.0000 C   0  0  0  0  0  0  0  0  0  0  0  0
    0.2167   -1.8292    0.0000 C   0  0  0  0  0  0  0  0  0  0  0  0
    0.9250    0.2375    0.0000 N   0  0  0  0  0  0  0  0  0  0  0  0
    3.4917   -3.0375    0.0000 C   0  0  0  0  0  0  0  0  0  0  0  0
    5.1042   -3.3792    0.0000 C   0  0  0  0  0  0  0  0  0  0  0  0
    5.9125   -3.5500    0.0000 N   0  0  0  0  0  0  0  0  0  0  0  0
    4.0417   -2.4250    0.0000 C   0  0  0  0  0  0  0  0  0  0  0  0
    3.7417   -3.8167    0.0000 C   0  0  0  0  0  0  0  0  0  0  0  0
    4.5542   -3.9917    0.0000 C   0  0  0  0  0  0  0  0  0  0  0  0
    4.8417   -2.5917    0.0000 C   0  0  0  0  0  0  0  0  0  0  0  0
    0.2125    0.6458    0.0000 C   0  0  0  0  0  0  0  0  0  0  0  0
  2  3  1  0
  3  1  1  0
  4  5  2  0
  5  1  1  0
  6  2  2  0
  7  3  2  0
  8 10  2  0
  9  1  1  0
 10  7  1  0
 11  6  1  0
 12  9  1  0
 13 17  2  0
 14 13  1  0
 15 12  1  0
 16 12  2  0
 17 16  1  0
 18 15  2  0
 19 11  1  0
  4  2  1  0
 18 13  1  0
  6  8  1  0
M  END

> <chembl_id>
CHEMBL267192

> <chembl_pref_name>
None

$$$$

     RDKit          2D

  7  7  0  0  0  0  0  0  0  0999 V2000
    0.0008    1.4038    0.0000 N   0  0  0  0  0  0  0  0  0  0  0  0
    0.0008    0.5788    0.0000 C   0  0  0  0  0  0  0  0  0  0  0  0
    0.7153    0.1663    0.0000 N   0  0  0  0  0  0  0  0  0  0  0  0
    0.7153   -0.6587    0.0000 C   0  0  0  0  0  0  0  0  0  0  0  0
    0.0008   -1.0712    0.0000 C   0  0  0  0  0  0  0  0  0  0  0  0
   -0.7136   -0.6587    0.0000 C   0  0  0  0  0  0  0  0  0  0  0  0
   -0.7136    0.1663    0.0000 C   0  0  0  0  0  0  0  0  0  0  0  0
  2  1  2  0
  2  3  1  0
  2  7  1  0
  4  3  1  0
  4  5  1  0
  6  5  1  0
  7  6  1  0
M  END

> <chembl_id>
CHEMBL269058

> <chembl_pref_name>
None

$$$$

     RDKit          2D

 19 20  0  0  0  0  0  0  0  0999 V2000
    5.7542   -4.3667    0.0000 C   0  0  0  0  0  0  0  0  0  0  0  0
    4.3375   -4.3667    0.0000 N   0  0  0  0  0  0  0  0  0  0  0  0
    4.3375   -5.1917    0.0000 N   0  0  0  0  0  0  0  0  0  0  0  0
    5.7542   -5.1917    0.0000 C   0  0  0  0  0  0  0  0  0  0  0  0
    5.0417   -3.9500    0.0000 C   0  0  0  0  0  0  0  0  0  0  0  0
    6.4750   -3.9542    0.0000 C   0  0  0  0  0  0  0  0  0  0  0  0
    5.0417   -5.6000    0.0000 C   0  0  0  0  0  0  0  0  0  0  0  0
    5.0417   -9.7167    0.0000 N   0  0  0  0  0  0  0  0  0  0  0  0
    5.0417   -8.0667    0.0000 C   0  0  0  0  0  0  0  0  0  0  0  0
    5.0417   -6.4250    0.0000 C   0  0  0  0  0  0  0  0  0  0  0  0
    5.0417   -8.8917    0.0000 C   0  0  0  0  0  0  0  0  0  0  0  0
    5.7625   -7.6542    0.0000 C   0  0  0  0  0  0  0  0  0  0  0  0
    5.7542   -6.8292    0.0000 C   0  0  0  0  0  0  0  0  0  0  0  0
    6.4792   -3.1292    0.0000 O   0  0  0  0  0  0  0  0  0  0  0  0
    4.3292   -7.6542    0.0000 C   0  0  0  0  0  0  0  0  0  0  0  0
    4.3292   -6.8292    0.0000 C   0  0  0  0  0  0  0  0  0  0  0  0
    7.1875   -4.3667    0.0000 N   0  0  0  0  0  0  0  0  0  0  0  0
    5.0417   -3.1250    0.0000 Cl  0  0  0  0  0  0  0  0  0  0  0  0
    6.4792   -8.0667    0.0000 Cl  0  0  0  0  0  0  0  0  0  0  0  0
  2  5  2  0
  3  2  1  0
  4  1  2  0
  5  1  1  0
  6  1  1  0
  7  4  1  0
  8 11  3  0
  9 15  2  0
 10  7  1  0
 11  9  1  0
 12 13  2  0
 13 10  1  0
 14  6  2  0
 15 16  1  0
 16 10  2  0
 17  6  1  0
 18  5  1  0
 19 12  1  0
  3  7  2  0
 12  9  1  0
M  END

> <chembl_id>
CHEMBL6429

> <chembl_pref_name>
None

$$$$

     RDKit          2D

 19 20  0  0  0  0  0  0  0  0999 V2000
    5.4500   -3.5917    0.0000 C   0  0  0  0  0  0  0  0  0  0  0  0
    4.7375   -8.1167    0.0000 N   0  0  0  0  0  0  0  0  0  0  0  0
    4.0292   -3.5917    0.0000 N   0  0  0  0  0  0  0  0  0  0  0  0
    4.0292   -4.4167    0.0000 N   0  0  0  0  0  0  0  0  0  0  0  0
    5.4500   -4.4167    0.0000 C   0  0  0  0  0  0  0  0  0  0  0  0
    4.7375   -3.1750    0.0000 C   0  0  0  0  0  0  0  0  0  0  0  0
    6.1667   -3.1792    0.0000 C   0  0  0  0  0  0  0  0  0  0  0  0
    4.7375   -4.8250    0.0000 C   0  0  0  0  0  0  0  0  0  0  0  0
    4.7375   -7.2917    0.0000 C   0  0  0  0  0  0  0  0  0  0  0  0
    4.0250   -8.5375    0.0000 O   0  0  0  0  0  0  0  0  0  0  0  0
    5.4542   -8.5375    0.0000 O   0  0  0  0  0  0  0  0  0  0  0  0
    4.7375   -5.6500    0.0000 C   0  0  0  0  0  0  0  0  0  0  0  0
    6.1667   -2.3542    0.0000 O   0  0  0  0  0  0  0  0  0  0  0  0
    4.0167   -6.8792    0.0000 C   0  0  0  0  0  0  0  0  0  0  0  0
    5.4542   -6.8792    0.0000 C   0  0  0  0  0  0  0  0  0  0  0  0
    4.0167   -6.0542    0.0000 C   0  0  0  0  0  0  0  0  0  0  0  0
    5.4500   -6.0542    0.0000 C   0  0  0  0  0  0  0  0  0  0  0  0
    6.8792   -3.5917    0.0000 N   0  0  0  0  0  0  0  0  0  0  0  0
    4.7375   -2.3500    0.0000 Cl  0  0  0  0  0  0  0  0  0  0  0  0
  2  9  1  0
  3  6  2  0
  4  3  1  0
  5  1  2  0
  6  1  1  0
  7  1  1  0
  8  5  1  0
  9 15  1  0
 10  2  1  0
 11  2  2  0
 12  8  1  0
 13  7  2  0
 14 16  1  0
 15 17  2  0
 16 12  2  0
 17 12  1  0
 18  7  1  0
 19  6  1  0
  4  8  2  0
 14  9  2  0
M  CHG  2   2   1  10  -1
M  END

> <chembl_id>
CHEMBL6439

> <chembl_pref_name>
None

$$$$

     RDKit          2D

 12 12  0  0  0  0  0  0  0  0999 V2000
    3.0500   -0.8125    0.0000 C   0  0  0  0  0  0  0  0  0  0  0  0
    4.4792   -0.8042    0.0000 N   0  0  0  0  0  0  0  0  0  0  0  0
    3.7625   -0.3917    0.0000 N   0  0  0  0  0  0  0  0  0  0  0  0
    3.0500   -1.6417    0.0000 C   0  0  0  0  0  0  0  0  0  0  0  0
    2.3292   -0.4000    0.0000 C   0  0  0  0  0  0  0  0  0  0  0  0
    5.1917   -1.2167    0.0000 O   0  0  0  0  0  0  0  0  0  0  0  0
    1.6167   -0.8125    0.0000 C   0  0  0  0  0  0  0  0  0  0  0  0
    2.3292   -2.0542    0.0000 C   0  0  0  0  0  0  0  0  0  0  0  0
    1.6167   -1.6417    0.0000 C   0  0  0  0  0  0  0  0  0  0  0  0
    2.3292    0.4250    0.0000 O   0  0  0  0  0  0  0  0  0  0  0  0
    2.3292   -2.8792    0.0000 O   0  0  0  0  0  0  0  0  0  0  0  0
    3.7542    0.4333    0.0000 C   0  0  0  0  0  0  0  0  0  0  0  0
  2  3  1  0
  3  1  1  0
  4  1  1  0
  5  1  2  0
  6  2  2  0
  7  5  1  0
  8  4  2  0
  9  7  2  0
 10  5  1  0
 11  8  1  0
 12  3  1  0
  8  9  1  0
M  END

> <chembl_id>
CHEMBL269733

> <chembl_pref_name>
DEPHOSTATIN

$$$$

     RDKit          2D

 22 24  0  0  0  0  0  0  0  0999 V2000
   -0.3000   -2.0667    0.0000 C   0  0  0  0  0  0  0  0  0  0  0  0
   -0.3000   -1.4667    0.0000 C   0  0  0  0  0  0  0  0  0  0  0  0
    0.2167   -2.3667    0.0000 C   0  0  0  0  0  0  0  0  0  0  0  0
    0.7375   -2.0667    0.0000 C   0  0  0  0  0  0  0  0  0  0  0  0
    0.7375   -1.4625    0.0000 C   0  0  0  0  0  0  0  0  0  0  0  0
    0.2167   -1.1625    0.0000 C   0  0  0  0  0  0  0  0  0  0  0  0
   -0.8208   -2.3667    0.0000 O   0  0  0  0  0  0  0  0  0  0  0  0
   -0.8208   -1.1667    0.0000 C   0  0  0  0  0  0  0  0  0  0  0  0
   -1.3375   -2.0667    0.0000 C   0  0  0  0  0  0  0  0  0  0  0  0
   -1.3375   -1.4625    0.0000 C   0  0  0  0  0  0  0  0  0  0  0  0
    1.3125   -2.2542    0.0000 O   0  0  0  0  0  0  0  0  0  0  0  0
    1.3125   -1.2750    0.0000 C   0  0  0  0  0  0  0  0  0  0  0  0
    1.6667   -1.7625    0.0000 C   0  0  0  0  0  0  0  0  0  0  0  0
   -1.8583   -2.3667    0.0000 O   0  0  0  0  0  0  0  0  0  0  0  0
    0.2167   -2.9667    0.0000 O   0  0  0  0  0  0  0  0  0  0  0  0
    0.2125   -0.5625    0.0000 C   0  0  0  0  0  0  0  0  0  0  0  0
    1.7667   -0.2500    0.0000 C   0  0  0  0  0  0  0  0  0  0  0  0
    2.8042   -0.2417    0.0000 O   0  0  0  0  0  0  0  0  0  0  0  0
    0.7292   -0.2542    0.0000 O   0  0  0  0  0  0  0  0  0  0  0  0
    2.2875   -0.5417    0.0000 C   0  0  0  0  0  0  0  0  0  0  0  0
    1.2500   -0.5542    0.0000 C   0  0  0  0  0  0  0  0  0  0  0  0
   -0.3000   -3.2667    0.0000 C   0  0  0  0  0  0  0  0  0  0  0  0
  2  1  2  0
  3  1  1  0
  4  3  2  0
  5  4  1  0
  6  2  1  0
  7  1  1  0
  8  2  1  0
  9  7  1  0
 10  9  1  0
 11  4  1  0
 12  5  1  0
 13 11  1  0
 14  9  2  0
 15  3  1  0
 16  6  1  0
 17 21  1  0
 18 20  1  0
 19 16  1  0
 20 17  1  0
 21 19  1  0
 22 15  1  0
  6  5  2  0
 10  8  2  0
 13 12  2  0
M  END

> <chembl_id>
CHEMBL6564

> <chembl_pref_name>
None

$$$$

     RDKit          2D

 18 20  0  0  0  0  0  0  0  0999 V2000
    2.2750   -2.8042    0.0000 N   0  0  0  0  0  0  0  0  0  0  0  0
    1.5042   -1.7042    0.0000 C   0  0  0  0  0  0  0  0  0  0  0  0
    1.4917   -2.5292    0.0000 C   0  0  0  0  0  0  0  0  0  0  0  0
    2.2917   -1.4667    0.0000 N   0  0  0  0  0  0  0  0  0  0  0  0
    2.7667   -2.1417    0.0000 C   0  0  0  0  0  0  0  0  0  0  0  0
    0.8042   -1.2792    0.0000 C   0  0  0  0  0  0  0  0  0  0  0  0
    0.7667   -2.9292    0.0000 N   0  0  0  0  0  0  0  0  0  0  0  0
    0.0792   -1.6792    0.0000 N   0  0  0  0  0  0  0  0  0  0  0  0
    2.5167   -3.5917    0.0000 C   0  0  0  0  0  0  0  0  0  0  0  0
    0.0625   -2.5042    0.0000 C   0  0  0  0  0  0  0  0  0  0  0  0
    0.8167   -0.4542    0.0000 N   0  0  0  0  0  0  0  0  0  0  0  0
    3.3167   -3.7792    0.0000 C   0  0  0  0  0  0  0  0  0  0  0  0
    0.1167   -0.0292    0.0000 C   0  0  0  0  0  0  0  0  0  0  0  0
    3.5542   -4.5667    0.0000 C   0  0  0  0  0  0  0  0  0  0  0  0
    3.8750   -3.1750    0.0000 C   0  0  0  0  0  0  0  0  0  0  0  0
    4.6792   -3.3542    0.0000 C   0  0  0  0  0  0  0  0  0  0  0  0
    4.3542   -4.7542    0.0000 C   0  0  0  0  0  0  0  0  0  0  0  0
    4.9250   -4.1500    0.0000 C   0  0  0  0  0  0  0  0  0  0  0  0
  2  3  2  0
  3  1  1  0
  4  5  2  0
  5  1  1  0
  6  2  1  0
  7  3  1  0
  8  6  2  0
  9  1  1  0
 10  7  2  0
 11  6  1  0
 12  9  1  0
 13 11  1  0
 14 12  2  0
 15 12  1  0
 16 15  2  0
 17 14  1  0
 18 17  2  0
  4  2  1  0
 10  8  1  0
 18 16  1  0
M  END

> <chembl_id>
CHEMBL6565

> <chembl_pref_name>
None

$$$$

     RDKit          2D

 26 29  0  0  0  0  0  0  0  0999 V2000
    3.1417   -1.5792    0.0000 N   0  0  0  0  0  0  0  0  0  0  0  0
    2.3625   -0.5000    0.0000 C   0  0  0  0  0  0  0  0  0  0  0  0
    2.3625   -1.3250    0.0000 C   0  0  0  0  0  0  0  0  0  0  0  0
    3.1417   -0.2417    0.0000 N   0  0  0  0  0  0  0  0  0  0  0  0
    3.6292   -0.9125    0.0000 C   0  0  0  0  0  0  0  0  0  0  0  0
    1.6417   -0.0875    0.0000 C   0  0  0  0  0  0  0  0  0  0  0  0
    1.6417   -1.7417    0.0000 N   0  0  0  0  0  0  0  0  0  0  0  0
    0.9292   -0.5000    0.0000 N   0  0  0  0  0  0  0  0  0  0  0  0
    3.4042   -2.3667    0.0000 C   0  0  0  0  0  0  0  0  0  0  0  0
    0.9292   -1.3292    0.0000 C   0  0  0  0  0  0  0  0  0  0  0  0
    4.2042   -2.5375    0.0000 C   0  0  0  0  0  0  0  0  0  0  0  0
    1.6417    0.7375    0.0000 N   0  0  0  0  0  0  0  0  0  0  0  0
    6.1125   -1.4750    0.0000 O   0  0  0  0  0  0  0  0  0  0  0  0
    4.7542   -1.9250    0.0000 C   0  0  0  0  0  0  0  0  0  0  0  0
    5.5625   -2.0917    0.0000 C   0  0  0  0  0  0  0  0  0  0  0  0
    6.9167   -1.6417    0.0000 C   0  0  0  0  0  0  0  0  0  0  0  0
    7.4667   -1.0292    0.0000 C   0  0  0  0  0  0  0  0  0  0  0  0
    5.2667   -3.4917    0.0000 C   0  0  0  0  0  0  0  0  0  0  0  0
    4.4625   -3.3167    0.0000 C   0  0  0  0  0  0  0  0  0  0  0  0
    5.8167   -2.8792    0.0000 C   0  0  0  0  0  0  0  0  0  0  0  0
    0.9292    1.1458    0.0000 C   0  0  0  0  0  0  0  0  0  0  0  0
    8.2750   -1.2000    0.0000 C   0  0  0  0  0  0  0  0  0  0  0  0
    7.2042   -0.2500    0.0000 C   0  0  0  0  0  0  0  0  0  0  0  0
    7.7542    0.3625    0.0000 C   0  0  0  0  0  0  0  0  0  0  0  0
    8.8250   -0.5875    0.0000 C   0  0  0  0  0  0  0  0  0  0  0  0
    8.5667    0.1958    0.0000 C   0  0  0  0  0  0  0  0  0  0  0  0
  2  3  1  0
  3  1  1  0
  4  5  2  0
  5  1  1  0
  6  2  2  0
  7  3  2  0
  8 10  2  0
  9  1  1  0
 10  7  1  0
 11  9  1  0
 12  6  1  0
 13 15  1  0
 14 11  1  0
 15 14  2  0
 16 13  1  0
 17 16  1  0
 18 19  1  0
 19 11  2  0
 20 18  2  0
 21 12  1  0
 22 17  2  0
 23 17  1  0
 24 23  2  0
 25 22  1  0
 26 24  1  0
  4  2  1  0
  6  8  1  0
 20 15  1  0
 25 26  2  0
M  END

> <chembl_id>
CHEMBL266037

> <chembl_pref_name>
None

$$$$

     RDKit          2D

 18 20  0  0  0  0  0  0  0  0999 V2000
    2.5374   -5.7401    0.0000 N   0  0  0  0  0  0  0  0  0  0  0  0
    3.2496   -5.3237    0.0000 C   0  0  0  0  0  0  0  0  0  0  0  0
    3.9657   -5.7323    0.0000 N   0  0  0  0  0  0  0  0  0  0  0  0
    2.5296   -4.0861    0.0000 N   0  0  0  0  0  0  0  0  0  0  0  0
    1.8174   -4.5025    0.0000 C   0  0  0  0  0  0  0  0  0  0  0  0
    1.8174   -5.3237    0.0000 C   0  0  0  0  0  0  0  0  0  0  0  0
    1.1052   -4.0861    0.0000 C   0  0  0  0  0  0  0  0  0  0  0  0
    3.2418   -4.4947    0.0000 C   0  0  0  0  0  0  0  0  0  0  0  0
    5.3901   -6.5496    0.0000 N   0  0  0  0  0  0  0  0  0  0  0  0
    1.1052   -5.7440    0.0000 C   0  0  0  0  0  0  0  0  0  0  0  0
    0.3930   -4.5025    0.0000 C   0  0  0  0  0  0  0  0  0  0  0  0
    0.3930   -5.3314    0.0000 C   0  0  0  0  0  0  0  0  0  0  0  0
    3.9657   -6.5574    0.0000 C   0  0  0  0  0  0  0  0  0  0  0  0
    4.6740   -5.3120    0.0000 C   0  0  0  0  0  0  0  0  0  0  0  0
   -0.3192   -4.0938    0.0000 O   0  0  0  0  0  0  0  0  0  0  0  0
    4.6779   -6.9660    0.0000 C   0  0  0  0  0  0  0  0  0  0  0  0
    5.3901   -5.7284    0.0000 C   0  0  0  0  0  0  0  0  0  0  0  0
   -0.3231   -3.2688    0.0000 C   0  0  0  0  0  0  0  0  0  0  0  0
  2  1  2  0
  3  2  1  0
  4  5  1  0
  5  6  1  0
  6  1  1  0
  7  5  2  0
  8  2  1  0
  9 17  1  0
 10  6  2  0
 11 12  2  0
 12 10  1  0
 13  3  1  0
 14  3  1  0
 15 11  1  0
 16 13  1  0
 17 14  1  0
 18 15  1  0
  4  8  2  0
 11  7  1  0
  9 16  1  0
M  END

> <chembl_id>
CHEMBL6713

> <chembl_pref_name>
None

$$$$

     RDKit          2D

 19 21  0  0  0  0  0  0  0  0999 V2000
    5.8625   -2.1417    0.0000 N   0  0  0  0  0  0  0  0  0  0  0  0
    5.0792   -1.0625    0.0000 C   0  0  0  0  0  0  0  0  0  0  0  0
    5.0792   -1.8875    0.0000 C   0  0  0  0  0  0  0  0  0  0  0  0
    5.8625   -0.8042    0.0000 N   0  0  0  0  0  0  0  0  0  0  0  0
    6.3500   -1.4750    0.0000 C   0  0  0  0  0  0  0  0  0  0  0  0
    4.3625   -0.6500    0.0000 C   0  0  0  0  0  0  0  0  0  0  0  0
    4.3625   -2.3042    0.0000 N   0  0  0  0  0  0  0  0  0  0  0  0
    3.6500   -1.0625    0.0000 N   0  0  0  0  0  0  0  0  0  0  0  0
    6.1167   -2.9292    0.0000 C   0  0  0  0  0  0  0  0  0  0  0  0
    3.6500   -1.8917    0.0000 C   0  0  0  0  0  0  0  0  0  0  0  0
    6.9250   -3.1000    0.0000 C   0  0  0  0  0  0  0  0  0  0  0  0
    4.3542    0.1750    0.0000 N   0  0  0  0  0  0  0  0  0  0  0  0
    7.4750   -2.4875    0.0000 C   0  0  0  0  0  0  0  0  0  0  0  0
    8.2792   -2.6542    0.0000 C   0  0  0  0  0  0  0  0  0  0  0  0
    8.8625   -2.0667    0.0000 F   0  0  0  0  0  0  0  0  0  0  0  0
    7.9875   -4.0542    0.0000 C   0  0  0  0  0  0  0  0  0  0  0  0
    7.1792   -3.8792    0.0000 C   0  0  0  0  0  0  0  0  0  0  0  0
    8.5375   -3.4417    0.0000 C   0  0  0  0  0  0  0  0  0  0  0  0
    3.6417    0.5833    0.0000 C   0  0  0  0  0  0  0  0  0  0  0  0
  2  3  1  0
  3  1  1  0
  4  5  2  0
  5  1  1  0
  6  2  2  0
  7  3  2  0
  8 10  2  0
  9  1  1  0
 10  7  1  0
 11  9  1  0
 12  6  1  0
 13 11  1  0
 14 13  2  0
 15 14  1  0
 16 17  1  0
 17 11  2  0
 18 16  2  0
 19 12  1  0
  4  2  1  0
  6  8  1  0
 14 18  1  0
M  END

> <chembl_id>
CHEMBL6704

> <chembl_pref_name>
None

$$$$

     RDKit          2D

 11 11  0  0  0  0  0  0  0  0999 V2000
   -4.9899    1.6532    0.0000 C   0  0  0  0  0  0  0  0  0  0  0  0
   -4.9911    0.8263    0.0000 C   0  0  0  0  0  0  0  0  0  0  0  0
   -4.2767    0.4137    0.0000 C   0  0  0  0  0  0  0  0  0  0  0  0
   -3.5607    0.8268    0.0000 C   0  0  0  0  0  0  0  0  0  0  0  0
   -3.5636    1.6568    0.0000 C   0  0  0  0  0  0  0  0  0  0  0  0
   -4.2785    2.0657    0.0000 C   0  0  0  0  0  0  0  0  0  0  0  0
   -4.2810    2.8902    0.0000 S   0  0  0  0  0  0  0  0  0  0  0  0
   -3.5682    3.3045    0.0000 N   0  0  0  0  0  0  0  0  0  0  0  0
   -5.0843    2.6816    0.0000 O   0  0  0  0  0  0  0  0  0  0  0  0
   -4.7012    3.6102    0.0000 O   0  0  0  0  0  0  0  0  0  0  0  0
   -2.8511    2.0717    0.0000 N   0  0  0  0  0  0  0  0  0  0  0  0
  5  6  2  0
  6  1  1  0
  1  2  2  0
  6  7  1  0
  3  4  2  0
  7  8  1  0
  7  9  2  0
  4  5  1  0
  7 10  2  0
  2  3  1  0
  5 11  1  0
M  END

> <chembl_id>
CHEMBL6705

> <chembl_pref_name>
None

$$$$

     RDKit          2D

 11 11  0  0  0  0  0  0  0  0999 V2000
    2.7869   -6.6450    0.0000 S   0  0  0  0  0  0  0  0  0  0  0  0
    2.5319   -7.4296    0.0000 C   0  0  0  0  0  0  0  0  0  0  0  0
    1.7069   -7.4296    0.0000 N   0  0  0  0  0  0  0  0  0  0  0  0
    1.4520   -6.6450    0.0000 N   0  0  0  0  0  0  0  0  0  0  0  0
    2.1194   -6.1600    0.0000 C   0  0  0  0  0  0  0  0  0  0  0  0
    3.0169   -8.0970    0.0000 S   0  0  0  0  0  0  0  0  0  0  0  0
    3.5018   -8.7645    0.0000 N   0  0  0  0  0  0  0  0  0  0  0  0
    3.6843   -7.6121    0.0000 O   0  0  0  0  0  0  0  0  0  0  0  0
    2.3494   -8.5819    0.0000 O   0  0  0  0  0  0  0  0  0  0  0  0
    2.1194   -5.3350    0.0000 N   0  0  0  0  0  0  0  0  0  0  0  0
    0.6674   -6.3900    0.0000 C   0  0  0  0  0  0  0  0  0  0  0  0
  1  2  1  0
  2  6  1  0
  6  7  1  0
  2  3  2  0
  6  8  2  0
  3  4  1  0
  6  9  2  0
  4  5  1  0
  5 10  2  0
  5  1  1  0
  4 11  1  0
M  END

> <chembl_id>
CHEMBL6753

> <chembl_pref_name>
None

$$$$

     RDKit          2D

 10 10  0  0  0  0  0  0  0  0999 V2000
    0.1688    0.8753    0.0000 S   0  0  0  0  0  0  0  0  0  0  0  0
    0.1688    1.7003    0.0000 O   0  0  0  0  0  0  0  0  0  0  0  0
   -0.6562    0.8753    0.0000 O   0  0  0  0  0  0  0  0  0  0  0  0
    0.9938    0.8753    0.0000 N   0  0  0  0  0  0  0  0  0  0  0  0
    0.8363   -0.4346    0.0000 N   0  0  0  0  0  0  0  0  0  0  0  0
    0.5813   -1.2192    0.0000 N   0  0  0  0  0  0  0  0  0  0  0  0
   -0.4986   -0.4346    0.0000 S   0  0  0  0  0  0  0  0  0  0  0  0
    0.1688    0.0503    0.0000 C   0  0  0  0  0  0  0  0  0  0  0  0
   -0.2437   -1.2192    0.0000 C   0  0  0  0  0  0  0  0  0  0  0  0
   -0.7286   -1.8866    0.0000 N   0  0  0  0  0  0  0  0  0  0  0  0
  2  1  2  0
  3  1  2  0
  4  1  1  0
  8  1  1  0
  5  6  1  0
  8  5  2  0
  9  6  2  0
  8  7  1  0
  9  7  1  0
  9 10  1  0
M  END

> <chembl_id>
CHEMBL265674

> <chembl_pref_name>
None

$$$$

     RDKit          2D

 11 11  0  0  0  0  0  0  0  0999 V2000
   -0.4970    1.3076    0.0000 C   0  0  0  0  0  0  0  0  0  0  0  0
   -0.4981    0.4807    0.0000 C   0  0  0  0  0  0  0  0  0  0  0  0
    0.2163    0.0681    0.0000 C   0  0  0  0  0  0  0  0  0  0  0  0
    0.9323    0.4812    0.0000 C   0  0  0  0  0  0  0  0  0  0  0  0
    0.9295    1.3112    0.0000 C   0  0  0  0  0  0  0  0  0  0  0  0
    0.2145    1.7201    0.0000 C   0  0  0  0  0  0  0  0  0  0  0  0
    0.2120    2.5446    0.0000 S   0  0  0  0  0  0  0  0  0  0  0  0
    0.9249    2.9591    0.0000 N   0  0  0  0  0  0  0  0  0  0  0  0
   -0.5914    2.3361    0.0000 O   0  0  0  0  0  0  0  0  0  0  0  0
   -0.2082    3.2648    0.0000 O   0  0  0  0  0  0  0  0  0  0  0  0
    1.6470    0.0701    0.0000 N   0  0  0  0  0  0  0  0  0  0  0  0
  5  6  2  0
  6  1  1  0
  1  2  2  0
  6  7  1  0
  3  4  2  0
  7  8  1  0
  7  9  2  0
  4  5  1  0
  7 10  2  0
  2  3  1  0
  4 11  1  0
M  END

> <chembl_id>
CHEMBL6852

> <chembl_pref_name>
None

$$$$

     RDKit          2D

 11 12  0  0  0  0  0  0  0  0999 V2000
    2.2167   -2.4042    0.0000 N   0  0  0  0  0  0  0  0  0  0  0  0
    2.9292   -1.9917    0.0000 C   0  0  0  0  0  0  0  0  0  0  0  0
    1.5042   -1.9917    0.0000 C   0  0  0  0  0  0  0  0  0  0  0  0
    3.6417   -2.4042    0.0000 N   0  0  0  0  0  0  0  0  0  0  0  0
    1.5042   -1.1667    0.0000 C   0  0  0  0  0  0  0  0  0  0  0  0
    2.2167   -0.7542    0.0000 C   0  0  0  0  0  0  0  0  0  0  0  0
    2.9292   -1.1667    0.0000 C   0  0  0  0  0  0  0  0  0  0  0  0
    0.7917   -2.4042    0.0000 C   0  0  0  0  0  0  0  0  0  0  0  0
    0.7917   -0.7542    0.0000 C   0  0  0  0  0  0  0  0  0  0  0  0
    0.0792   -1.9917    0.0000 C   0  0  0  0  0  0  0  0  0  0  0  0
    0.0792   -1.1667    0.0000 C   0  0  0  0  0  0  0  0  0  0  0  0
  2  1  2  0
  3  1  1  0
  4  2  1  0
  5  3  2  0
  6  5  1  0
  7  2  1  0
  8  3  1  0
  9  5  1  0
 10  8  2  0
 11 10  1  0
  7  6  1  0
  9 11  2  0
M  END

> <chembl_id>
CHEMBL6656

> <chembl_pref_name>
None

$$$$

     RDKit          2D

 10 10  0  0  0  0  0  0  0  0999 V2000
    6.0750   -2.5667    0.0000 C   0  0  0  0  0  0  0  0  0  0  0  0
    5.3625   -2.9792    0.0000 N   0  0  0  0  0  0  0  0  0  0  0  0
    6.7917   -2.9792    0.0000 N   0  0  0  0  0  0  0  0  0  0  0  0
    6.0750   -1.7417    0.0000 C   0  0  0  0  0  0  0  0  0  0  0  0
    4.6542   -2.5667    0.0000 C   0  0  0  0  0  0  0  0  0  0  0  0
    5.3625   -1.3292    0.0000 C   0  0  0  0  0  0  0  0  0  0  0  0
    4.6542   -1.7417    0.0000 C   0  0  0  0  0  0  0  0  0  0  0  0
    5.3625   -0.5042    0.0000 C   0  0  0  0  0  0  0  0  0  0  0  0
    6.0792   -0.0917    0.0000 C   0  0  0  0  0  0  0  0  0  0  0  0
    6.0792    0.7333    0.0000 C   0  0  0  0  0  0  0  0  0  0  0  0
  2  1  2  0
  3  1  1  0
  4  1  1  0
  5  2  1  0
  6  4  1  0
  7  6  1  0
  8  6  1  0
  9  8  1  0
 10  9  1  0
  7  5  1  0
M  END

> <chembl_id>
CHEMBL6657

> <chembl_pref_name>
None

$$$$

     RDKit          2D

  8  8  0  0  0  0  0  0  0  0999 V2000
    5.3625   -2.9792    0.0000 N   0  0  0  0  0  0  0  0  0  0  0  0
    6.0750   -2.5667    0.0000 C   0  0  0  0  0  0  0  0  0  0  0  0
    6.7917   -2.9792    0.0000 N   0  0  0  0  0  0  0  0  0  0  0  0
    4.6542   -2.5667    0.0000 C   0  0  0  0  0  0  0  0  0  0  0  0
    6.0750   -1.7417    0.0000 C   0  0  0  0  0  0  0  0  0  0  0  0
    5.3625   -1.3292    0.0000 C   0  0  0  0  0  0  0  0  0  0  0  0
    4.6542   -1.7417    0.0000 C   0  0  0  0  0  0  0  0  0  0  0  0
    3.9375   -2.9792    0.0000 C   0  0  0  0  0  0  0  0  0  0  0  0
  2  1  2  0
  3  2  1  0
  4  1  1  0
  5  2  1  0
  6  7  1  0
  7  4  1  0
  8  4  1  0
  5  6  1  0
M  END

> <chembl_id>
CHEMBL265672

> <chembl_pref_name>
None

$$$$

     RDKit          2D

 12 12  0  0  0  0  0  0  0  0999 V2000
    9.5253   -3.5975    0.0000 C   0  0  0  0  0  0  0  0  0  0  0  0
    9.5241   -4.4242    0.0000 C   0  0  0  0  0  0  0  0  0  0  0  0
   10.2385   -4.8368    0.0000 C   0  0  0  0  0  0  0  0  0  0  0  0
   10.9544   -4.4238    0.0000 C   0  0  0  0  0  0  0  0  0  0  0  0
   10.9515   -3.5938    0.0000 C   0  0  0  0  0  0  0  0  0  0  0  0
   10.2367   -3.1850    0.0000 C   0  0  0  0  0  0  0  0  0  0  0  0
   10.2342   -2.3606    0.0000 S   0  0  0  0  0  0  0  0  0  0  0  0
   10.9469   -1.9463    0.0000 N   0  0  0  0  0  0  0  0  0  0  0  0
    9.4310   -2.5690    0.0000 O   0  0  0  0  0  0  0  0  0  0  0  0
    9.8140   -1.6406    0.0000 O   0  0  0  0  0  0  0  0  0  0  0  0
   10.2383   -5.6613    0.0000 N   0  0  0  0  0  0  0  0  0  0  0  0
   11.6690   -4.8349    0.0000 I   0  0  0  0  0  0  0  0  0  0  0  0
  6  1  1  0
  1  2  2  0
  6  7  1  0
  3  4  2  0
  7  8  1  0
  7  9  2  0
  4  5  1  0
  7 10  2  0
  2  3  1  0
  3 11  1  0
  5  6  2  0
  4 12  1  0
M  END

> <chembl_id>
CHEMBL268177

> <chembl_pref_name>
None

$$$$

     RDKit          2D

 22 24  0  0  0  0  0  0  0  0999 V2000
    1.4250   -0.5667    0.0000 C   0  0  0  0  0  0  0  0  0  0  0  0
    2.2042   -1.6500    0.0000 N   0  0  0  0  0  0  0  0  0  0  0  0
    1.4250   -1.3917    0.0000 C   0  0  0  0  0  0  0  0  0  0  0  0
    2.2042   -0.3125    0.0000 N   0  0  0  0  0  0  0  0  0  0  0  0
    0.7042   -0.1542    0.0000 C   0  0  0  0  0  0  0  0  0  0  0  0
    2.6917   -0.9792    0.0000 C   0  0  0  0  0  0  0  0  0  0  0  0
    0.7042   -1.8125    0.0000 N   0  0  0  0  0  0  0  0  0  0  0  0
   -0.0083   -0.5750    0.0000 N   0  0  0  0  0  0  0  0  0  0  0  0
    2.4667   -2.4375    0.0000 C   0  0  0  0  0  0  0  0  0  0  0  0
    3.2667   -2.6042    0.0000 C   0  0  0  0  0  0  0  0  0  0  0  0
   -0.0083   -1.4000    0.0000 C   0  0  0  0  0  0  0  0  0  0  0  0
    0.7042    0.6708    0.0000 N   0  0  0  0  0  0  0  0  0  0  0  0
    3.8167   -1.9917    0.0000 C   0  0  0  0  0  0  0  0  0  0  0  0
    3.6042   -1.1917    0.0000 F   0  0  0  0  0  0  0  0  0  0  0  0
    3.5250   -3.3917    0.0000 C   0  0  0  0  0  0  0  0  0  0  0  0
   -0.0083    1.0750    0.0000 C   0  0  0  0  0  0  0  0  0  0  0  0
    1.4167    1.0833    0.0000 C   0  0  0  0  0  0  0  0  0  0  0  0
    4.6250   -2.1625    0.0000 C   0  0  0  0  0  0  0  0  0  0  0  0
   -0.0125    1.9000    0.0000 C   0  0  0  0  0  0  0  0  0  0  0  0
    1.4167    1.9083    0.0000 C   0  0  0  0  0  0  0  0  0  0  0  0
    4.3292   -3.5625    0.0000 C   0  0  0  0  0  0  0  0  0  0  0  0
    4.8792   -2.9500    0.0000 C   0  0  0  0  0  0  0  0  0  0  0  0
  2  3  1  0
  3  1  1  0
  4  1  1  0
  5  1  2  0
  6  4  2  0
  7  3  2  0
  8  5  1  0
  9  2  1  0
 10  9  1  0
 11  8  2  0
 12  5  1  0
 13 10  1  0
 14 13  1  0
 15 10  2  0
 16 12  1  0
 17 12  1  0
 18 13  2  0
 19 16  1  0
 20 17  1  0
 21 15  1  0
 22 21  2  0
  2  6  1  0
 11  7  1  0
 18 22  1  0
M  END

> <chembl_id>
CHEMBL268787

> <chembl_pref_name>
None

$$$$

     RDKit          2D

 24 27  0  0  0  0  0  0  0  0999 V2000
    5.8526   -2.9867    0.0000 C   0  0  0  0  0  0  0  0  0  0  0  0
    6.5564   -1.7372    0.0000 N   0  0  0  0  0  0  0  0  0  0  0  0
    5.8474   -2.1509    0.0000 C   0  0  0  0  0  0  0  0  0  0  0  0
    4.4110   -2.9878    0.0000 S   0  0  0  0  0  0  0  0  0  0  0  0
    5.1336   -3.3948    0.0000 C   0  0  0  0  0  0  0  0  0  0  0  0
    7.2841   -2.1471    0.0000 C   0  0  0  0  0  0  0  0  0  0  0  0
    7.2977   -2.9678    0.0000 N   0  0  0  0  0  0  0  0  0  0  0  0
    6.5752   -3.3938    0.0000 C   0  0  0  0  0  0  0  0  0  0  0  0
    3.7020   -3.4015    0.0000 C   0  0  0  0  0  0  0  0  0  0  0  0
    2.9794   -2.9945    0.0000 C   0  0  0  0  0  0  0  0  0  0  0  0
    4.4158   -2.1576    0.0000 O   0  0  0  0  0  0  0  0  0  0  0  0
    2.2654   -3.4053    0.0000 C   0  0  0  0  0  0  0  0  0  0  0  0
    3.7021   -4.2344    0.0000 C   0  0  0  0  0  0  0  0  0  0  0  0
    5.1248   -1.7439    0.0000 N   0  0  0  0  0  0  0  0  0  0  0  0
    8.0015   -1.7183    0.0000 N   0  0  0  0  0  0  0  0  0  0  0  0
    2.2706   -4.2411    0.0000 C   0  0  0  0  0  0  0  0  0  0  0  0
    2.9932   -4.6481    0.0000 C   0  0  0  0  0  0  0  0  0  0  0  0
    5.1388   -4.2306    0.0000 C   0  0  0  0  0  0  0  0  0  0  0  0
    6.5832   -4.2245    0.0000 C   0  0  0  0  0  0  0  0  0  0  0  0
    5.8614   -4.6376    0.0000 C   0  0  0  0  0  0  0  0  0  0  0  0
    1.5507   -2.9961    0.0000 C   0  0  0  0  0  0  0  0  0  0  0  0
    1.5516   -4.6492    0.0000 C   0  0  0  0  0  0  0  0  0  0  0  0
    0.8267   -3.4013    0.0000 C   0  0  0  0  0  0  0  0  0  0  0  0
    0.8290   -4.2422    0.0000 C   0  0  0  0  0  0  0  0  0  0  0  0
  2  3  2  0
  3  1  1  0
  4  5  1  0
  5  1  1  0
  6  7  2  0
  7  8  1  0
  8  1  2  0
  9  4  1  0
 10  9  1  0
 11  4  1  0
 12 10  2  0
 13  9  2  0
 14  3  1  0
 15  6  1  0
 16 17  2  0
 17 13  1  0
 18  5  2  0
 19  8  1  0
 20 19  2  0
 21 12  1  0
 22 16  1  0
 23 21  2  0
 24 22  2  0
 20 18  1  0
  2  6  1  0
 12 16  1  0
 23 24  1  0
M  CHG  2   4   1  11  -1
M  END

> <chembl_id>
CHEMBL6726

> <chembl_pref_name>
None

$$$$

     RDKit          2D

 20 22  0  0  0  0  0  0  0  0999 V2000
    3.6792   -1.4667    0.0000 N   0  0  0  0  0  0  0  0  0  0  0  0
    2.9000   -0.3917    0.0000 C   0  0  0  0  0  0  0  0  0  0  0  0
    2.9000   -1.2167    0.0000 C   0  0  0  0  0  0  0  0  0  0  0  0
    3.6792   -0.1292    0.0000 N   0  0  0  0  0  0  0  0  0  0  0  0
    4.1667   -0.8042    0.0000 C   0  0  0  0  0  0  0  0  0  0  0  0
    2.1792    0.0208    0.0000 C   0  0  0  0  0  0  0  0  0  0  0  0
    2.1792   -1.6292    0.0000 N   0  0  0  0  0  0  0  0  0  0  0  0
    3.9417   -2.2542    0.0000 C   0  0  0  0  0  0  0  0  0  0  0  0
    4.7417   -2.4292    0.0000 C   0  0  0  0  0  0  0  0  0  0  0  0
    1.4667   -0.3917    0.0000 N   0  0  0  0  0  0  0  0  0  0  0  0
    5.2917   -1.8167    0.0000 C   0  0  0  0  0  0  0  0  0  0  0  0
    1.4667   -1.2167    0.0000 C   0  0  0  0  0  0  0  0  0  0  0  0
    6.1000   -1.9792    0.0000 C   0  0  0  0  0  0  0  0  0  0  0  0
    5.0000   -3.2125    0.0000 C   0  0  0  0  0  0  0  0  0  0  0  0
    2.1792    0.8458    0.0000 N   0  0  0  0  0  0  0  0  0  0  0  0
    6.3542   -2.7667    0.0000 C   0  0  0  0  0  0  0  0  0  0  0  0
    5.0792   -1.0167    0.0000 F   0  0  0  0  0  0  0  0  0  0  0  0
    5.8042   -3.3792    0.0000 C   0  0  0  0  0  0  0  0  0  0  0  0
    7.1542   -2.9792    0.0000 F   0  0  0  0  0  0  0  0  0  0  0  0
    1.4667    1.2583    0.0000 C   0  0  0  0  0  0  0  0  0  0  0  0
  2  3  1  0
  3  1  1  0
  4  5  2  0
  5  1  1  0
  6  2  2  0
  7  3  2  0
  8  1  1  0
  9  8  1  0
 10 12  2  0
 11  9  1  0
 12  7  1  0
 13 11  2  0
 14  9  2  0
 15  6  1  0
 16 18  2  0
 17 11  1  0
 18 14  1  0
 19 16  1  0
 20 15  1  0
  4  2  1  0
  6 10  1  0
 13 16  1  0
M  END

> <chembl_id>
CHEMBL6723

> <chembl_pref_name>
None

$$$$

     RDKit          2D

 27 29  0  0  1  0  0  0  0  0999 V2000
    0.7167   -1.6917    0.0000 N   0  0  0  0  0  0  0  0  0  0  0  0
    0.5542   -2.5000    0.0000 C   0  0  0  0  0  0  0  0  0  0  0  0
   -0.2250   -2.7667    0.0000 C   0  0  0  0  0  0  0  0  0  0  0  0
    1.4667   -1.3417    0.0000 C   0  0  0  0  0  0  0  0  0  0  0  0
    2.1875   -1.7417    0.0000 C   0  0  0  0  0  0  0  0  0  0  0  0
    1.1750   -3.0417    0.0000 O   0  0  0  0  0  0  0  0  0  0  0  0
   -0.8458   -2.2250    0.0000 O   0  0  0  0  0  0  0  0  0  0  0  0
   -0.3875   -3.5750    0.0000 C   0  0  0  0  0  0  0  0  0  0  0  0
    2.1917   -2.5667    0.0000 O   0  0  0  0  0  0  0  0  0  0  0  0
    7.1750   -1.2417    0.0000 N   0  0  0  0  0  0  0  0  0  0  0  0
    0.1542   -1.0792    0.0000 C   0  0  0  0  0  0  0  0  0  0  0  0
    2.8917   -1.3167    0.0000 O   0  0  0  0  0  0  0  0  0  0  0  0
    1.3625   -0.5250    0.0000 C   0  0  0  0  0  0  0  0  0  0  0  0
    5.7500   -1.2667    0.0000 C   0  0  0  0  0  0  0  0  0  0  0  0
    0.5542   -0.3625    0.0000 C   0  0  0  0  0  0  0  0  0  0  0  0
    6.4667   -1.6667    0.0000 C   0  0  0  0  0  0  0  0  0  0  0  0
    7.1625   -0.4167    0.0000 C   0  0  0  0  0  0  0  0  0  0  0  0
   -1.1708   -3.8375    0.0000 C   0  0  0  0  0  0  0  0  0  0  0  0
    0.2375   -4.1125    0.0000 C   0  0  0  0  0  0  0  0  0  0  0  0
    3.6167   -1.7167    0.0000 C   0  0  0  0  0  0  0  0  0  0  0  0
    5.0417   -1.6917    0.0000 C   0  0  0  0  0  0  0  0  0  0  0  0
    5.7292   -0.4417    0.0000 C   0  0  0  0  0  0  0  0  0  0  0  0
    4.3250   -1.2917    0.0000 C   0  0  0  0  0  0  0  0  0  0  0  0
    6.4375   -0.0167    0.0000 C   0  0  0  0  0  0  0  0  0  0  0  0
    0.0792   -4.9167    0.0000 C   0  0  0  0  0  0  0  0  0  0  0  0
   -1.3250   -4.6417    0.0000 C   0  0  0  0  0  0  0  0  0  0  0  0
   -0.7083   -5.1917    0.0000 C   0  0  0  0  0  0  0  0  0  0  0  0
  2  1  1  0
  3  2  1  0
  4  1  1  0
  4  5  1  1
  6  2  2  0
  7  3  2  0
  8  3  1  0
  9  5  2  0
 10 16  1  0
 11  1  1  0
 12  5  1  0
 13  4  1  0
 14 21  1  0
 15 11  1  0
 16 14  2  0
 17 24  1  0
 18  8  2  0
 19  8  1  0
 20 12  1  0
 21 23  1  0
 22 14  1  0
 23 20  1  0
 24 22  2  0
 25 19  2  0
 26 18  1  0
 27 25  1  0
 15 13  1  0
 26 27  2  0
 10 17  2  0
M  END

> <chembl_id>
CHEMBL269154

> <chembl_pref_name>
None

$$$$

     RDKit          2D

 29 31  0  0  1  0  0  0  0  0999 V2000
    0.7167   -1.6917    0.0000 N   0  0  0  0  0  0  0  0  0  0  0  0
    0.5542   -2.5000    0.0000 C   0  0  0  0  0  0  0  0  0  0  0  0
    5.0417   -1.6917    0.0000 S   0  0  0  0  0  0  0  0  0  0  0  0
   -0.2250   -2.7667    0.0000 C   0  0  0  0  0  0  0  0  0  0  0  0
    1.4667   -1.3417    0.0000 C   0  0  0  0  0  0  0  0  0  0  0  0
    2.1875   -1.7417    0.0000 C   0  0  0  0  0  0  0  0  0  0  0  0
    4.3250   -1.2917    0.0000 C   0  0  0  0  0  0  0  0  0  0  0  0
    5.0417   -2.5167    0.0000 O   0  0  0  0  0  0  0  0  0  0  0  0
    5.0417   -0.8667    0.0000 O   0  0  0  0  0  0  0  0  0  0  0  0
    1.1750   -3.0417    0.0000 O   0  0  0  0  0  0  0  0  0  0  0  0
    5.7500   -1.2667    0.0000 C   0  0  0  0  0  0  0  0  0  0  0  0
   -0.8458   -2.2250    0.0000 O   0  0  0  0  0  0  0  0  0  0  0  0
   -0.3875   -3.5750    0.0000 C   0  0  0  0  0  0  0  0  0  0  0  0
    2.1917   -2.5667    0.0000 O   0  0  0  0  0  0  0  0  0  0  0  0
    0.1542   -1.0792    0.0000 C   0  0  0  0  0  0  0  0  0  0  0  0
    2.8917   -1.3167    0.0000 O   0  0  0  0  0  0  0  0  0  0  0  0
    3.6167   -1.7167    0.0000 C   0  0  0  0  0  0  0  0  0  0  0  0
    1.3625   -0.5250    0.0000 C   0  0  0  0  0  0  0  0  0  0  0  0
    0.5542   -0.3625    0.0000 C   0  0  0  0  0  0  0  0  0  0  0  0
    6.4667   -1.6667    0.0000 C   0  0  0  0  0  0  0  0  0  0  0  0
    5.7292   -0.4417    0.0000 C   0  0  0  0  0  0  0  0  0  0  0  0
   -1.1708   -3.8375    0.0000 C   0  0  0  0  0  0  0  0  0  0  0  0
    0.2375   -4.1125    0.0000 C   0  0  0  0  0  0  0  0  0  0  0  0
    6.4375   -0.0167    0.0000 C   0  0  0  0  0  0  0  0  0  0  0  0
   -1.3250   -4.6417    0.0000 C   0  0  0  0  0  0  0  0  0  0  0  0
    0.0792   -4.9167    0.0000 C   0  0  0  0  0  0  0  0  0  0  0  0
    7.1750   -1.2417    0.0000 C   0  0  0  0  0  0  0  0  0  0  0  0
    7.1625   -0.4167    0.0000 C   0  0  0  0  0  0  0  0  0  0  0  0
   -0.7083   -5.1917    0.0000 C   0  0  0  0  0  0  0  0  0  0  0  0
  2  1  1  0
  3  7  1  0
  4  2  1  0
  5  1  1  0
  5  6  1  1
  7 17  1  0
  8  3  2  0
  9  3  2  0
 10  2  2  0
 11  3  1  0
 12  4  2  0
 13  4  1  0
 14  6  2  0
 15  1  1  0
 16  6  1  0
 17 16  1  0
 18  5  1  0
 19 15  1  0
 20 11  2  0
 21 11  1  0
 22 13  2  0
 23 13  1  0
 24 21  2  0
 25 22  1  0
 26 23  2  0
 27 20  1  0
 28 24  1  0
 29 26  1  0
 19 18  1  0
 25 29  2  0
 27 28  2  0
M  END

> <chembl_id>
CHEMBL6809

> <chembl_pref_name>
None

$$$$

     RDKit          2D

 21 22  0  0  1  0  0  0  0  0999 V2000
    3.2542   -1.4917    0.0000 N   0  0  0  0  0  0  0  0  0  0  0  0
    4.6667   -0.9042    0.0000 C   0  0  0  0  0  0  0  0  0  0  0  0
    3.2625   -2.3167    0.0000 C   0  0  0  0  0  0  0  0  0  0  0  0
    3.8417   -2.8917    0.0000 C   0  0  0  0  0  0  0  0  0  0  0  0
    3.8417   -0.9042    0.0000 C   0  0  0  0  0  0  0  0  0  0  0  0
    5.2500   -1.4917    0.0000 N   0  0  0  0  0  0  0  0  0  0  0  0
    4.6667   -2.8917    0.0000 C   0  0  0  0  0  0  0  0  0  0  0  0
    4.9792   -0.1417    0.0000 O   0  0  0  0  0  0  0  0  0  0  0  0
    3.6292   -3.6792    0.0000 C   0  0  0  0  0  0  0  0  0  0  0  0
    5.2500   -2.3167    0.0000 C   0  0  0  0  0  0  0  0  0  0  0  0
    2.4917   -1.1667    0.0000 C   0  0  0  0  0  0  0  0  0  0  0  0
    3.5250   -0.1417    0.0000 C   0  0  0  0  0  0  0  0  0  0  0  0
    2.4667   -2.5292    0.0000 C   0  0  0  0  0  0  0  0  0  0  0  0
    4.2167   -4.2667    0.0000 O   0  0  0  0  0  0  0  0  0  0  0  0
    6.1167   -3.4417    0.0000 O   0  0  0  0  0  0  0  0  0  0  0  0
    2.2542   -3.3167    0.0000 C   0  0  0  0  0  0  0  0  0  0  0  0
    6.0125   -2.6292    0.0000 C   0  0  0  0  0  0  0  0  0  0  0  0
    2.8417   -3.8917    0.0000 C   0  0  0  0  0  0  0  0  0  0  0  0
    4.0250    0.5208    0.0000 C   0  0  0  0  0  0  0  0  0  0  0  0
    2.7042   -0.0292    0.0000 C   0  0  0  0  0  0  0  0  0  0  0  0
    4.0042   -5.0667    0.0000 C   0  0  0  0  0  0  0  0  0  0  0  0
  2  5  1  0
  3  1  1  0
  4  3  2  0
  5  1  1  0
  6  2  1  0
  7  4  1  0
  8  2  2  0
  9  4  1  0
 10  6  1  0
 11  1  1  0
  5 12  1  1
 13  3  1  0
 14  9  1  0
 15 17  1  0
 16 13  2  0
 10 17  1  6
 18 16  1  0
 19 12  1  0
 20 12  1  0
 21 14  1  0
  7 10  1  0
  9 18  2  0
M  END

> <chembl_id>
CHEMBL6644

> <chembl_pref_name>
None

$$$$

     RDKit          2D

 19 20  0  0  0  0  0  0  0  0999 V2000
    6.0250   -3.1167    0.0000 C   0  0  0  0  0  0  0  0  0  0  0  0
    5.8042   -2.3167    0.0000 C   0  0  0  0  0  0  0  0  0  0  0  0
    5.6750   -4.4917    0.0000 C   0  0  0  0  0  0  0  0  0  0  0  0
    5.4500   -3.7042    0.0000 C   0  0  0  0  0  0  0  0  0  0  0  0
    5.0042   -2.1125    0.0000 C   0  0  0  0  0  0  0  0  0  0  0  0
    6.3792   -1.7375    0.0000 C   0  0  0  0  0  0  0  0  0  0  0  0
    5.1000   -5.0792    0.0000 O   0  0  0  0  0  0  0  0  0  0  0  0
    4.7917   -1.3167    0.0000 C   0  0  0  0  0  0  0  0  0  0  0  0
    4.4292   -2.6917    0.0000 C   0  0  0  0  0  0  0  0  0  0  0  0
    3.4125   -1.6917    0.0000 C   0  0  0  0  0  0  0  0  0  0  0  0
    6.4667   -4.6917    0.0000 O   0  0  0  0  0  0  0  0  0  0  0  0
    3.9917   -1.1042    0.0000 C   0  0  0  0  0  0  0  0  0  0  0  0
    3.6250   -2.4750    0.0000 C   0  0  0  0  0  0  0  0  0  0  0  0
    2.6042   -1.5000    0.0000 Cl  0  0  0  0  0  0  0  0  0  0  0  0
    6.8167   -3.3250    0.0000 C   0  0  0  0  0  0  0  0  0  0  0  0
    6.1667   -0.9417    0.0000 O   0  0  0  0  0  0  0  0  0  0  0  0
    7.4000   -2.7375    0.0000 C   0  0  0  0  0  0  0  0  0  0  0  0
    7.1667   -1.9417    0.0000 C   0  0  0  0  0  0  0  0  0  0  0  0
    6.7417   -0.3542    0.0000 C   0  0  0  0  0  0  0  0  0  0  0  0
  2  1  2  0
  3  4  1  0
  4  1  1  0
  5  2  1  0
  6  2  1  0
  7  3  2  0
  8  5  2  0
  9  5  1  0
 10 13  1  0
 11  3  1  0
 12  8  1  0
 13  9  2  0
 14 10  1  0
 15  1  1  0
 16  6  1  0
 17 15  2  0
 18 17  1  0
 19 16  1  0
 18  6  2  0
 12 10  2  0
M  END

> <chembl_id>
CHEMBL267667

> <chembl_pref_name>
None

$$$$

     RDKit          2D

 22 24  0  0  0  0  0  0  0  0999 V2000
    5.8529   -2.9867    0.0000 C   0  0  0  0  0  0  0  0  0  0  0  0
    6.5569   -1.7369    0.0000 N   0  0  0  0  0  0  0  0  0  0  0  0
    5.8478   -2.1507    0.0000 C   0  0  0  0  0  0  0  0  0  0  0  0
    4.4110   -2.9878    0.0000 S   0  0  0  0  0  0  0  0  0  0  0  0
    5.1338   -3.3949    0.0000 C   0  0  0  0  0  0  0  0  0  0  0  0
    7.2848   -2.1469    0.0000 C   0  0  0  0  0  0  0  0  0  0  0  0
    7.2984   -2.9678    0.0000 N   0  0  0  0  0  0  0  0  0  0  0  0
    6.5757   -3.3939    0.0000 C   0  0  0  0  0  0  0  0  0  0  0  0
    3.7019   -3.4016    0.0000 C   0  0  0  0  0  0  0  0  0  0  0  0
    2.9791   -2.9945    0.0000 C   0  0  0  0  0  0  0  0  0  0  0  0
    2.2649   -3.4054    0.0000 C   0  0  0  0  0  0  0  0  0  0  0  0
    4.4158   -2.1574    0.0000 O   0  0  0  0  0  0  0  0  0  0  0  0
    2.2700   -4.2414    0.0000 C   0  0  0  0  0  0  0  0  0  0  0  0
    3.7020   -4.2347    0.0000 C   0  0  0  0  0  0  0  0  0  0  0  0
    5.1250   -1.7436    0.0000 N   0  0  0  0  0  0  0  0  0  0  0  0
    2.9928   -4.6486    0.0000 C   0  0  0  0  0  0  0  0  0  0  0  0
    8.0024   -1.7180    0.0000 N   0  0  0  0  0  0  0  0  0  0  0  0
    1.5449   -2.9932    0.0000 Cl  0  0  0  0  0  0  0  0  0  0  0  0
    5.1389   -4.2309    0.0000 C   0  0  0  0  0  0  0  0  0  0  0  0
    1.5509   -4.6496    0.0000 Cl  0  0  0  0  0  0  0  0  0  0  0  0
    6.5837   -4.2248    0.0000 C   0  0  0  0  0  0  0  0  0  0  0  0
    5.8617   -4.6380    0.0000 C   0  0  0  0  0  0  0  0  0  0  0  0
  2  3  2  0
  3  1  1  0
  4  5  1  0
  5  1  1  0
  6  7  2  0
  7  8  1  0
  8  1  2  0
  9  4  1  0
 10  9  1  0
 11 10  2  0
 12  4  1  0
 13 16  2  0
 14  9  2  0
 15  3  1  0
 16 14  1  0
 17  6  1  0
 18 11  1  0
 19  5  2  0
 20 13  1  0
 21  8  1  0
 22 21  2  0
 19 22  1  0
  2  6  1  0
 11 13  1  0
M  CHG  2   4   1  12  -1
M  END

> <chembl_id>
CHEMBL6642

> <chembl_pref_name>
None

$$$$

     RDKit          2D

 24 27  0  0  0  0  0  0  0  0999 V2000
    8.0051   -3.3725    0.0000 N   0  0  0  0  0  0  0  0  0  0  0  0
    6.5708   -3.3894    0.0000 C   0  0  0  0  0  0  0  0  0  0  0  0
    7.2859   -2.9662    0.0000 C   0  0  0  0  0  0  0  0  0  0  0  0
    8.0150   -4.2135    0.0000 C   0  0  0  0  0  0  0  0  0  0  0  0
    4.4170   -2.9825    0.0000 S   0  0  0  0  0  0  0  0  0  0  0  0
    7.3055   -4.6367    0.0000 N   0  0  0  0  0  0  0  0  0  0  0  0
    5.8516   -2.9830    0.0000 C   0  0  0  0  0  0  0  0  0  0  0  0
    5.1364   -3.4004    0.0000 C   0  0  0  0  0  0  0  0  0  0  0  0
    6.5805   -4.2189    0.0000 C   0  0  0  0  0  0  0  0  0  0  0  0
    3.6961   -3.4058    0.0000 C   0  0  0  0  0  0  0  0  0  0  0  0
    2.9826   -2.9936    0.0000 C   0  0  0  0  0  0  0  0  0  0  0  0
    4.4131   -2.1530    0.0000 O   0  0  0  0  0  0  0  0  0  0  0  0
    2.2673   -3.4053    0.0000 C   0  0  0  0  0  0  0  0  0  0  0  0
    5.1403   -4.2358    0.0000 C   0  0  0  0  0  0  0  0  0  0  0  0
    3.7058   -4.2353    0.0000 C   0  0  0  0  0  0  0  0  0  0  0  0
    5.8710   -4.6420    0.0000 C   0  0  0  0  0  0  0  0  0  0  0  0
    8.7399   -4.6198    0.0000 N   0  0  0  0  0  0  0  0  0  0  0  0
    2.2712   -4.2349    0.0000 C   0  0  0  0  0  0  0  0  0  0  0  0
    2.9906   -4.6527    0.0000 C   0  0  0  0  0  0  0  0  0  0  0  0
    7.2820   -2.1366    0.0000 O   0  0  0  0  0  0  0  0  0  0  0  0
    1.5538   -2.9930    0.0000 C   0  0  0  0  0  0  0  0  0  0  0  0
    1.5560   -4.6523    0.0000 C   0  0  0  0  0  0  0  0  0  0  0  0
    0.8442   -3.4047    0.0000 C   0  0  0  0  0  0  0  0  0  0  0  0
    0.8367   -4.2344    0.0000 C   0  0  0  0  0  0  0  0  0  0  0  0
  2  3  1  0
  3  1  2  0
  4  1  1  0
  5  8  1  0
  6  4  2  0
  7  2  1  0
  8  7  2  0
  9  6  1  0
 10  5  1  0
 11 10  1  0
 12  5  1  0
 13 11  2  0
 14 16  2  0
 15 10  2  0
 16  9  1  0
 17  4  1  0
 18 19  2  0
 19 15  1  0
 20  3  1  0
 21 13  1  0
 22 18  1  0
 23 21  2  0
 24 22  2  0
  2  9  2  0
  8 14  1  0
 13 18  1  0
 23 24  1  0
M  CHG  2   5   1  12  -1
M  END

> <chembl_id>
CHEMBL269059

> <chembl_pref_name>
None

$$$$

     RDKit          2D

 35 38  0  0  0  0  0  0  0  0999 V2000
    7.4292    0.2000    0.0000 N   0  0  0  0  0  0  0  0  0  0  0  0
    7.0542   -0.2667    0.0000 C   0  0  0  0  0  0  0  0  0  0  0  0
    2.8417   -3.3292    0.0000 N   0  0  0  0  0  0  0  0  0  0  0  0
    2.4917   -3.8167    0.0000 C   0  0  0  0  0  0  0  0  0  0  0  0
    7.3917   -0.7667    0.0000 N   0  0  0  0  0  0  0  0  0  0  0  0
    7.9917   -0.0042    0.0000 C   0  0  0  0  0  0  0  0  0  0  0  0
    3.4167   -3.5167    0.0000 C   0  0  0  0  0  0  0  0  0  0  0  0
    2.8417   -4.3000    0.0000 O   0  0  0  0  0  0  0  0  0  0  0  0
    7.9667   -0.6042    0.0000 O   0  0  0  0  0  0  0  0  0  0  0  0
    3.4167   -4.1167    0.0000 C   0  0  0  0  0  0  0  0  0  0  0  0
    0.0875   -3.8125    0.0000 C   0  0  0  0  0  0  0  0  0  0  0  0
    6.5917   -1.4292    0.0000 C   0  0  0  0  0  0  0  0  0  0  0  0
    6.3875   -1.9917    0.0000 C   0  0  0  0  0  0  0  0  0  0  0  0
    1.8917   -3.8167    0.0000 C   0  0  0  0  0  0  0  0  0  0  0  0
    7.1875   -1.3292    0.0000 C   0  0  0  0  0  0  0  0  0  0  0  0
    0.6875   -3.8167    0.0000 C   0  0  0  0  0  0  0  0  0  0  0  0
    6.4542   -0.2417    0.0000 O   0  0  0  0  0  0  0  0  0  0  0  0
    3.9000   -3.1625    0.0000 C   0  0  0  0  0  0  0  0  0  0  0  0
    5.9042   -2.3500    0.0000 C   0  0  0  0  0  0  0  0  0  0  0  0
    8.4917    0.3333    0.0000 O   0  0  0  0  0  0  0  0  0  0  0  0
    1.5875   -4.3375    0.0000 C   0  0  0  0  0  0  0  0  0  0  0  0
    1.5917   -3.2917    0.0000 C   0  0  0  0  0  0  0  0  0  0  0  0
    0.9875   -4.3375    0.0000 C   0  0  0  0  0  0  0  0  0  0  0  0
    0.9917   -3.2917    0.0000 C   0  0  0  0  0  0  0  0  0  0  0  0
   -0.3833   -3.4667    0.0000 F   0  0  0  0  0  0  0  0  0  0  0  0
   -0.2125   -4.3292    0.0000 F   0  0  0  0  0  0  0  0  0  0  0  0
    0.2500   -3.2292    0.0000 F   0  0  0  0  0  0  0  0  0  0  0  0
    4.4500   -3.4042    0.0000 O   0  0  0  0  0  0  0  0  0  0  0  0
    5.9667   -2.9417    0.0000 C   0  0  0  0  0  0  0  0  0  0  0  0
    5.3542   -2.1042    0.0000 C   0  0  0  0  0  0  0  0  0  0  0  0
    4.9292   -3.0542    0.0000 C   0  0  0  0  0  0  0  0  0  0  0  0
    5.4792   -3.3000    0.0000 C   0  0  0  0  0  0  0  0  0  0  0  0
    4.8667   -2.4542    0.0000 C   0  0  0  0  0  0  0  0  0  0  0  0
    3.9000   -4.4667    0.0000 C   0  0  0  0  0  0  0  0  0  0  0  0
    6.7750   -2.4542    0.0000 C   0  0  0  0  0  0  0  0  0  0  0  0
  2  1  1  0
  3  7  1  0
  4  3  2  0
  5  2  1  0
  6  1  1  0
  7 18  1  0
  8 10  1  0
  9  6  1  0
 10  7  2  0
 11 16  1  0
 12 15  1  0
 13 12  2  0
 14  4  1  0
 15  5  1  0
 16 24  2  0
 17  2  2  0
 18 28  1  0
 19 13  1  0
 20  6  2  0
 21 14  1  0
 22 14  2  0
 23 21  2  0
 24 22  1  0
 25 11  1  0
 26 11  1  0
 27 11  1  0
 28 31  1  0
 29 19  2  0
 30 19  1  0
 31 33  1  0
 32 29  1  0
 33 30  2  0
 34 10  1  0
 35 13  1  0
  9  5  1  0
 32 31  2  0
  8  4  1  0
 23 16  1  0
M  END

> <chembl_id>
CHEMBL6599

> <chembl_pref_name>
None

$$$$

     RDKit          2D

 35 38  0  0  0  0  0  0  0  0999 V2000
    8.6042   -1.9417    0.0000 N   0  0  0  0  0  0  0  0  0  0  0  0
    8.0292   -2.1292    0.0000 C   0  0  0  0  0  0  0  0  0  0  0  0
    2.8417   -3.3292    0.0000 N   0  0  0  0  0  0  0  0  0  0  0  0
    2.4917   -3.8167    0.0000 C   0  0  0  0  0  0  0  0  0  0  0  0
    8.0292   -2.7292    0.0000 N   0  0  0  0  0  0  0  0  0  0  0  0
    8.9542   -2.4292    0.0000 C   0  0  0  0  0  0  0  0  0  0  0  0
    3.4167   -3.5167    0.0000 C   0  0  0  0  0  0  0  0  0  0  0  0
    8.6042   -2.9167    0.0000 S   0  0  0  0  0  0  0  0  0  0  0  0
    2.8417   -4.3000    0.0000 O   0  0  0  0  0  0  0  0  0  0  0  0
    3.4167   -4.1167    0.0000 C   0  0  0  0  0  0  0  0  0  0  0  0
    0.0875   -3.8125    0.0000 C   0  0  0  0  0  0  0  0  0  0  0  0
    7.0000   -2.8417    0.0000 C   0  0  0  0  0  0  0  0  0  0  0  0
    6.5125   -3.1917    0.0000 C   0  0  0  0  0  0  0  0  0  0  0  0
    1.8917   -3.8167    0.0000 C   0  0  0  0  0  0  0  0  0  0  0  0
    7.5417   -3.0792    0.0000 C   0  0  0  0  0  0  0  0  0  0  0  0
    0.6875   -3.8167    0.0000 C   0  0  0  0  0  0  0  0  0  0  0  0
    5.9667   -2.9417    0.0000 C   0  0  0  0  0  0  0  0  0  0  0  0
    7.5417   -1.7792    0.0000 O   0  0  0  0  0  0  0  0  0  0  0  0
    3.9000   -3.1625    0.0000 C   0  0  0  0  0  0  0  0  0  0  0  0
    9.5542   -2.4292    0.0000 O   0  0  0  0  0  0  0  0  0  0  0  0
    5.4792   -3.3000    0.0000 C   0  0  0  0  0  0  0  0  0  0  0  0
    1.5917   -3.2917    0.0000 C   0  0  0  0  0  0  0  0  0  0  0  0
    1.5875   -4.3375    0.0000 C   0  0  0  0  0  0  0  0  0  0  0  0
    0.9917   -3.2917    0.0000 C   0  0  0  0  0  0  0  0  0  0  0  0
    0.9875   -4.3375    0.0000 C   0  0  0  0  0  0  0  0  0  0  0  0
   -0.3833   -3.4667    0.0000 F   0  0  0  0  0  0  0  0  0  0  0  0
   -0.2125   -4.3292    0.0000 F   0  0  0  0  0  0  0  0  0  0  0  0
    0.2500   -3.2292    0.0000 F   0  0  0  0  0  0  0  0  0  0  0  0
    4.4500   -3.4042    0.0000 O   0  0  0  0  0  0  0  0  0  0  0  0
    4.9292   -3.0542    0.0000 C   0  0  0  0  0  0  0  0  0  0  0  0
    3.9000   -4.4667    0.0000 C   0  0  0  0  0  0  0  0  0  0  0  0
    5.9042   -2.3500    0.0000 C   0  0  0  0  0  0  0  0  0  0  0  0
    6.5750   -3.7875    0.0000 C   0  0  0  0  0  0  0  0  0  0  0  0
    5.3542   -2.1042    0.0000 C   0  0  0  0  0  0  0  0  0  0  0  0
    4.8667   -2.4542    0.0000 C   0  0  0  0  0  0  0  0  0  0  0  0
  2  1  1  0
  3  7  1  0
  4  3  2  0
  5  2  1  0
  6  1  1  0
  7 19  1  0
  8  6  1  0
  9 10  1  0
 10  7  2  0
 11 16  1  0
 12 15  1  0
 13 12  2  0
 14  4  1  0
 15  5  1  0
 16 25  1  0
 17 13  1  0
 18  2  2  0
 19 29  1  0
 20  6  2  0
 21 17  1  0
 22 14  2  0
 23 14  1  0
 24 22  1  0
 25 23  2  0
 26 11  1  0
 27 11  1  0
 28 11  1  0
 29 30  1  0
 30 21  2  0
 31 10  1  0
 32 17  2  0
 33 13  1  0
 34 32  1  0
 35 34  2  0
  8  5  1  0
 30 35  1  0
  9  4  1  0
 16 24  2  0
M  END

> <chembl_id>
CHEMBL265622

> <chembl_pref_name>
None

$$$$

     RDKit          2D

 18 20  0  0  0  0  0  0  0  0999 V2000
    6.5875   -7.2750    0.0000 N   0  0  0  0  0  0  0  0  0  0  0  0
    7.3500   -6.8292    0.0000 C   0  0  0  0  0  0  0  0  0  0  0  0
    8.1167   -7.2667    0.0000 N   0  0  0  0  0  0  0  0  0  0  0  0
    5.8167   -6.8292    0.0000 C   0  0  0  0  0  0  0  0  0  0  0  0
    6.5792   -5.5042    0.0000 N   0  0  0  0  0  0  0  0  0  0  0  0
    5.0542   -7.2792    0.0000 C   0  0  0  0  0  0  0  0  0  0  0  0
    7.3417   -5.9417    0.0000 C   0  0  0  0  0  0  0  0  0  0  0  0
    5.8167   -5.9500    0.0000 C   0  0  0  0  0  0  0  0  0  0  0  0
    9.6417   -8.1417    0.0000 N   0  0  0  0  0  0  0  0  0  0  0  0
    5.0542   -5.5042    0.0000 C   0  0  0  0  0  0  0  0  0  0  0  0
    4.2917   -6.8375    0.0000 C   0  0  0  0  0  0  0  0  0  0  0  0
    4.2917   -5.9500    0.0000 C   0  0  0  0  0  0  0  0  0  0  0  0
    8.1167   -8.1500    0.0000 C   0  0  0  0  0  0  0  0  0  0  0  0
    8.8750   -6.8167    0.0000 C   0  0  0  0  0  0  0  0  0  0  0  0
    3.5250   -7.2792    0.0000 O   0  0  0  0  0  0  0  0  0  0  0  0
    8.8792   -8.5875    0.0000 C   0  0  0  0  0  0  0  0  0  0  0  0
    9.6417   -7.2625    0.0000 C   0  0  0  0  0  0  0  0  0  0  0  0
    2.7625   -6.8375    0.0000 C   0  0  0  0  0  0  0  0  0  0  0  0
  2  1  2  0
  3  2  1  0
  4  1  1  0
  5  8  1  0
  6  4  2  0
  7  2  1  0
  8  4  1  0
  9 17  1  0
 10  8  2  0
 11  6  1  0
 12 10  1  0
 13  3  1  0
 14  3  1  0
 15 11  1  0
 16 13  1  0
 17 14  1  0
 18 15  1  0
  5  7  2  0
 12 11  2  0
  9 16  1  0
M  END

> <chembl_id>
CHEMBL414011

> <chembl_pref_name>
None

$$$$

     RDKit          2D

 19 21  0  0  0  0  0  0  0  0999 V2000
    0.4550   -5.2106    0.0000 N   0  0  0  0  0  0  0  0  0  0  0  0
    3.3155   -5.2067    0.0000 N   0  0  0  0  0  0  0  0  0  0  0  0
    4.0277   -4.7903    0.0000 C   0  0  0  0  0  0  0  0  0  0  0  0
    2.5956   -4.7903    0.0000 C   0  0  0  0  0  0  0  0  0  0  0  0
    1.1712   -4.7980    0.0000 C   0  0  0  0  0  0  0  0  0  0  0  0
    4.7439   -5.1989    0.0000 N   0  0  0  0  0  0  0  0  0  0  0  0
    1.8834   -5.2106    0.0000 C   0  0  0  0  0  0  0  0  0  0  0  0
    3.3078   -3.5527    0.0000 N   0  0  0  0  0  0  0  0  0  0  0  0
   -0.2649   -4.7980    0.0000 O   0  0  0  0  0  0  0  0  0  0  0  0
    2.5956   -3.9691    0.0000 C   0  0  0  0  0  0  0  0  0  0  0  0
    4.0200   -3.9613    0.0000 C   0  0  0  0  0  0  0  0  0  0  0  0
    0.4473   -6.0356    0.0000 O   0  0  0  0  0  0  0  0  0  0  0  0
    6.1683   -6.0162    0.0000 N   0  0  0  0  0  0  0  0  0  0  0  0
    1.1712   -3.9691    0.0000 C   0  0  0  0  0  0  0  0  0  0  0  0
    1.8834   -3.5527    0.0000 C   0  0  0  0  0  0  0  0  0  0  0  0
    5.4522   -4.7786    0.0000 C   0  0  0  0  0  0  0  0  0  0  0  0
    4.7439   -6.0240    0.0000 C   0  0  0  0  0  0  0  0  0  0  0  0
    5.4561   -6.4326    0.0000 C   0  0  0  0  0  0  0  0  0  0  0  0
    6.1683   -5.1950    0.0000 C   0  0  0  0  0  0  0  0  0  0  0  0
  2  4  1  0
  3  2  2  0
  4  7  2  0
  5  1  1  0
  6  3  1  0
  7  5  1  0
  8 10  1  0
  9  1  1  0
 10 15  2  0
 11  8  2  0
 12  1  2  0
 13 18  1  0
 14  5  2  0
 15 14  1  0
 16  6  1  0
 17  6  1  0
 18 17  1  0
 19 16  1  0
 10  4  1  0
 11  3  1  0
 19 13  1  0
M  CHG  2   1   1   9  -1
M  END

> <chembl_id>
CHEMBL266170

> <chembl_pref_name>
None

$$$$

     RDKit          2D

 22 24  0  0  0  0  0  0  0  0999 V2000
    4.1875  -11.4250    0.0000 N   0  0  0  0  0  0  0  0  0  0  0  0
    3.5042  -10.8917    0.0000 C   0  0  0  0  0  0  0  0  0  0  0  0
    4.9875  -11.2250    0.0000 C   0  0  0  0  0  0  0  0  0  0  0  0
    2.8250  -11.2792    0.0000 C   0  0  0  0  0  0  0  0  0  0  0  0
    3.5000  -10.0917    0.0000 C   0  0  0  0  0  0  0  0  0  0  0  0
    4.9542  -14.2917    0.0000 N   0  0  0  0  0  0  0  0  0  0  0  0
    5.3292  -10.4667    0.0000 C   0  0  0  0  0  0  0  0  0  0  0  0
    4.1292   -9.5792    0.0000 C   0  0  0  0  0  0  0  0  0  0  0  0
    4.9292   -9.7167    0.0000 C   0  0  0  0  0  0  0  0  0  0  0  0
    3.9667  -12.2500    0.0000 C   0  0  0  0  0  0  0  0  0  0  0  0
    2.8250   -9.7042    0.0000 C   0  0  0  0  0  0  0  0  0  0  0  0
    2.1417  -10.8875    0.0000 C   0  0  0  0  0  0  0  0  0  0  0  0
    4.5667  -12.8542    0.0000 C   0  0  0  0  0  0  0  0  0  0  0  0
    2.1417  -10.1042    0.0000 C   0  0  0  0  0  0  0  0  0  0  0  0
    1.4625  -11.2750    0.0000 Cl  0  0  0  0  0  0  0  0  0  0  0  0
    4.3417  -13.6875    0.0000 C   0  0  0  0  0  0  0  0  0  0  0  0
    5.4750  -11.9042    0.0000 C   0  0  0  0  0  0  0  0  0  0  0  0
    4.3417  -14.9000    0.0000 C   0  0  0  0  0  0  0  0  0  0  0  0
    5.7000  -14.7250    0.0000 C   0  0  0  0  0  0  0  0  0  0  0  0
    6.1625  -10.3792    0.0000 C   0  0  0  0  0  0  0  0  0  0  0  0
    6.3042  -11.8167    0.0000 C   0  0  0  0  0  0  0  0  0  0  0  0
    6.6500  -11.0542    0.0000 C   0  0  0  0  0  0  0  0  0  0  0  0
  2  1  1  0
  3  1  1  0
  4  2  2  0
  5  2  1  0
  6 16  1  0
  7  3  2  0
  8  5  1  0
  9  7  1  0
 10  1  1  0
 11  5  2  0
 12  4  1  0
 13 10  1  0
 14 11  1  0
 15 12  1  0
 16 13  1  0
 17  3  1  0
 18  6  1  0
 19  6  1  0
 20  7  1  0
 21 17  2  0
 22 21  1  0
  8  9  1  0
 20 22  2  0
 12 14  2  0
M  END

> <chembl_id>
CHEMBL415

> <chembl_pref_name>
CLOMIPRAMINE

$$$$

     RDKit          2D

 18 20  0  0  0  0  0  0  0  0999 V2000
    2.4784   -5.3965    0.0000 N   0  0  0  0  0  0  0  0  0  0  0  0
    3.1906   -4.9801    0.0000 C   0  0  0  0  0  0  0  0  0  0  0  0
    1.7585   -4.9801    0.0000 C   0  0  0  0  0  0  0  0  0  0  0  0
    3.9068   -5.3888    0.0000 N   0  0  0  0  0  0  0  0  0  0  0  0
    2.4707   -3.7425    0.0000 N   0  0  0  0  0  0  0  0  0  0  0  0
    1.0463   -5.4004    0.0000 C   0  0  0  0  0  0  0  0  0  0  0  0
    1.7585   -4.1589    0.0000 C   0  0  0  0  0  0  0  0  0  0  0  0
    1.0463   -3.7425    0.0000 C   0  0  0  0  0  0  0  0  0  0  0  0
    0.3341   -4.9879    0.0000 C   0  0  0  0  0  0  0  0  0  0  0  0
    0.3341   -4.1589    0.0000 C   0  0  0  0  0  0  0  0  0  0  0  0
    3.1829   -4.1512    0.0000 C   0  0  0  0  0  0  0  0  0  0  0  0
    5.3312   -6.2061    0.0000 N   0  0  0  0  0  0  0  0  0  0  0  0
   -0.3781   -3.7503    0.0000 Cl  0  0  0  0  0  0  0  0  0  0  0  0
   -0.3821   -5.3965    0.0000 Cl  0  0  0  0  0  0  0  0  0  0  0  0
    3.9068   -6.2138    0.0000 C   0  0  0  0  0  0  0  0  0  0  0  0
    4.6151   -4.9685    0.0000 C   0  0  0  0  0  0  0  0  0  0  0  0
    5.3312   -5.3848    0.0000 C   0  0  0  0  0  0  0  0  0  0  0  0
    4.6190   -6.6225    0.0000 C   0  0  0  0  0  0  0  0  0  0  0  0
  2  1  2  0
  3  1  1  0
  4  2  1  0
  5  7  1  0
  6  3  2  0
  7  3  1  0
  8  7  2  0
  9  6  1  0
 10  8  1  0
 11  2  1  0
 12 17  1  0
 13 10  1  0
 14  9  1  0
 15  4  1  0
 16  4  1  0
 17 16  1  0
 18 15  1  0
  5 11  2  0
 10  9  2  0
 12 18  1  0
M  END

> <chembl_id>
CHEMBL6901

> <chembl_pref_name>
None

$$$$

     RDKit          2D

 23 26  0  0  0  0  0  0  0  0999 V2000
    2.2375   -8.4917    0.0000 N   0  0  0  0  0  0  0  0  0  0  0  0
    2.7542   -8.1917    0.0000 C   0  0  0  0  0  0  0  0  0  0  0  0
    3.2750   -8.4917    0.0000 C   0  0  0  0  0  0  0  0  0  0  0  0
    2.2375   -9.1000    0.0000 C   0  0  0  0  0  0  0  0  0  0  0  0
    2.7542   -9.4000    0.0000 N   0  0  0  0  0  0  0  0  0  0  0  0
    3.2750   -9.0917    0.0000 C   0  0  0  0  0  0  0  0  0  0  0  0
    3.7917   -8.1917    0.0000 C   0  0  0  0  0  0  0  0  0  0  0  0
    4.8292   -8.1792    0.0000 S   0  0  0  0  0  0  0  0  0  0  0  0
    4.3125   -8.4875    0.0000 C   0  0  0  0  0  0  0  0  0  0  0  0
    5.3542   -8.4792    0.0000 C   0  0  0  0  0  0  0  0  0  0  0  0
    6.3875   -8.4667    0.0000 C   0  0  0  0  0  0  0  0  0  0  0  0
    5.8667   -8.1750    0.0000 C   0  0  0  0  0  0  0  0  0  0  0  0
    3.7917   -9.3917    0.0000 C   0  0  0  0  0  0  0  0  0  0  0  0
    1.7167   -9.4000    0.0000 N   0  0  0  0  0  0  0  0  0  0  0  0
    6.3917   -9.0667    0.0000 C   0  0  0  0  0  0  0  0  0  0  0  0
    2.7500   -7.5917    0.0000 O   0  0  0  0  0  0  0  0  0  0  0  0
    5.8750   -9.3750    0.0000 C   0  0  0  0  0  0  0  0  0  0  0  0
    4.3167   -9.0917    0.0000 C   0  0  0  0  0  0  0  0  0  0  0  0
    5.3542   -9.0792    0.0000 C   0  0  0  0  0  0  0  0  0  0  0  0
    6.9000   -8.1625    0.0000 C   0  0  0  0  0  0  0  0  0  0  0  0
    6.9125   -9.3625    0.0000 C   0  0  0  0  0  0  0  0  0  0  0  0
    7.4167   -8.4542    0.0000 C   0  0  0  0  0  0  0  0  0  0  0  0
    7.4292   -9.0542    0.0000 C   0  0  0  0  0  0  0  0  0  0  0  0
  2  1  2  0
  3  2  1  0
  4  1  1  0
  5  4  2  0
  6  5  1  0
  7  3  1  0
  8  9  1  0
  9  7  2  0
 10  8  1  0
 11 12  2  0
 12 10  1  0
 13  6  1  0
 14  4  1  0
 15 17  2  0
 16  2  1  0
 17 19  1  0
 18 13  2  0
 19 10  2  0
 20 11  1  0
 21 15  1  0
 22 20  2  0
 23 21  2  0
  3  6  2  0
  9 18  1  0
 11 15  1  0
 22 23  1  0
M  END

> <chembl_id>
CHEMBL6991

> <chembl_pref_name>
None

$$$$

     RDKit          2D

 20 22  0  0  0  0  0  0  0  0999 V2000
    3.9042   -3.5542    0.0000 N   0  0  0  0  0  0  0  0  0  0  0  0
    3.1167   -2.4792    0.0000 C   0  0  0  0  0  0  0  0  0  0  0  0
    3.1167   -3.3042    0.0000 C   0  0  0  0  0  0  0  0  0  0  0  0
    3.9042   -2.2167    0.0000 N   0  0  0  0  0  0  0  0  0  0  0  0
    4.9667   -4.5167    0.0000 C   0  0  0  0  0  0  0  0  0  0  0  0
    4.3917   -2.8917    0.0000 C   0  0  0  0  0  0  0  0  0  0  0  0
    4.1625   -4.3417    0.0000 C   0  0  0  0  0  0  0  0  0  0  0  0
    2.4042   -2.0667    0.0000 C   0  0  0  0  0  0  0  0  0  0  0  0
    2.4042   -3.7167    0.0000 N   0  0  0  0  0  0  0  0  0  0  0  0
    1.6917   -2.4792    0.0000 N   0  0  0  0  0  0  0  0  0  0  0  0
    1.6917   -3.3042    0.0000 C   0  0  0  0  0  0  0  0  0  0  0  0
    5.2167   -5.3000    0.0000 C   0  0  0  0  0  0  0  0  0  0  0  0
    5.5167   -3.9042    0.0000 C   0  0  0  0  0  0  0  0  0  0  0  0
    2.4000   -1.2417    0.0000 N   0  0  0  0  0  0  0  0  0  0  0  0
    4.6667   -5.9125    0.0000 Cl  0  0  0  0  0  0  0  0  0  0  0  0
    5.3000   -3.1042    0.0000 F   0  0  0  0  0  0  0  0  0  0  0  0
    6.5792   -4.8542    0.0000 C   0  0  0  0  0  0  0  0  0  0  0  0
    6.3167   -4.0667    0.0000 C   0  0  0  0  0  0  0  0  0  0  0  0
    6.0292   -5.4667    0.0000 C   0  0  0  0  0  0  0  0  0  0  0  0
    1.6875   -0.8292    0.0000 C   0  0  0  0  0  0  0  0  0  0  0  0
  2  3  1  0
  3  1  1  0
  4  6  2  0
  5  7  1  0
  6  1  1  0
  7  1  1  0
  8  2  2  0
  9  3  2  0
 10 11  2  0
 11  9  1  0
 12  5  2  0
 13  5  1  0
 14  8  1  0
 15 12  1  0
 16 13  1  0
 17 18  1  0
 18 13  2  0
 19 12  1  0
 20 14  1  0
  4  2  1  0
 19 17  2  0
  8 10  1  0
M  END

> <chembl_id>
CHEMBL269046

> <chembl_pref_name>
None

$$$$

     RDKit          2D

 21 22  0  0  0  0  0  0  0  0999 V2000
    2.5292   -1.0625    0.0000 Cl  0  0  0  0  0  0  0  0  0  0  0  0
   -1.2875   -2.1875    0.0000 C   0  0  0  0  0  0  0  0  0  0  0  0
   -0.8250   -2.5625    0.0000 C   0  0  0  0  0  0  0  0  0  0  0  0
   -1.2083   -1.5875    0.0000 C   0  0  0  0  0  0  0  0  0  0  0  0
   -0.1833   -1.7542    0.0000 C   0  0  0  0  0  0  0  0  0  0  0  0
   -0.6458   -1.3792    0.0000 C   0  0  0  0  0  0  0  0  0  0  0  0
   -0.2708   -2.3417    0.0000 C   0  0  0  0  0  0  0  0  0  0  0  0
   -1.8458   -2.4000    0.0000 C   0  0  0  0  0  0  0  0  0  0  0  0
   -0.7875   -3.1542    0.0000 O   0  0  0  0  0  0  0  0  0  0  0  0
   -0.6750   -0.7792    0.0000 O   0  0  0  0  0  0  0  0  0  0  0  0
   -1.5750   -1.1250    0.0000 C   0  0  0  0  0  0  0  0  0  0  0  0
    0.1125   -2.8000    0.0000 C   0  0  0  0  0  0  0  0  0  0  0  0
   -1.2500   -0.6250    0.0000 C   0  0  0  0  0  0  0  0  0  0  0  0
   -0.2083   -3.3042    0.0000 C   0  0  0  0  0  0  0  0  0  0  0  0
    0.3792   -1.5292    0.0000 C   0  0  0  0  0  0  0  0  0  0  0  0
    1.3250   -1.5500    0.0000 N   0  0  0  0  0  0  0  0  0  0  0  0
   -1.9458   -2.9875    0.0000 F   0  0  0  0  0  0  0  0  0  0  0  0
   -2.4250   -2.5542    0.0000 F   0  0  0  0  0  0  0  0  0  0  0  0
   -2.3083   -2.0167    0.0000 F   0  0  0  0  0  0  0  0  0  0  0  0
    0.8417   -1.9000    0.0000 C   0  0  0  0  0  0  0  0  0  0  0  0
    1.0542   -2.4625    0.0000 C   0  0  0  0  0  0  0  0  0  0  0  0
  3  2  1  0
  4  2  2  0
  5  6  2  0
  6  4  1  0
  7  3  2  0
  8  2  1  0
  9  3  1  0
 10  6  1  0
 11  4  1  0
 12  7  1  0
 13 11  2  0
 14  9  1  0
 15  5  1  0
 16 20  1  0
 17  8  1  0
 18  8  1  0
 19  8  1  0
 20 15  1  0
 20 21  1  6
  5  7  1  0
 10 13  1  0
 12 14  2  0
M  END

> <chembl_id>
CHEMBL7132

> <chembl_pref_name>
None

$$$$

     RDKit          2D

 18 19  0  0  0  0  0  0  0  0999 V2000
    4.0792   -2.5625    0.0000 Cl  0  0  0  0  0  0  0  0  0  0  0  0
    1.3750   -3.2542    0.0000 C   0  0  0  0  0  0  0  0  0  0  0  0
    0.3500   -3.0875    0.0000 C   0  0  0  0  0  0  0  0  0  0  0  0
    0.9042   -2.8792    0.0000 C   0  0  0  0  0  0  0  0  0  0  0  0
    1.2792   -3.8417    0.0000 C   0  0  0  0  0  0  0  0  0  0  0  0
    0.7292   -4.0625    0.0000 C   0  0  0  0  0  0  0  0  0  0  0  0
    0.2667   -3.6875    0.0000 C   0  0  0  0  0  0  0  0  0  0  0  0
    0.8792   -2.2792    0.0000 O   0  0  0  0  0  0  0  0  0  0  0  0
    0.7667   -4.6542    0.0000 O   0  0  0  0  0  0  0  0  0  0  0  0
   -0.0208   -2.6250    0.0000 C   0  0  0  0  0  0  0  0  0  0  0  0
    1.6667   -4.3000    0.0000 C   0  0  0  0  0  0  0  0  0  0  0  0
    0.3042   -2.1250    0.0000 C   0  0  0  0  0  0  0  0  0  0  0  0
    1.3500   -4.8042    0.0000 C   0  0  0  0  0  0  0  0  0  0  0  0
    1.9292   -3.0292    0.0000 C   0  0  0  0  0  0  0  0  0  0  0  0
    2.8792   -3.0500    0.0000 N   0  0  0  0  0  0  0  0  0  0  0  0
   -0.2958   -3.9000    0.0000 Br  0  0  0  0  0  0  0  0  0  0  0  0
    2.4000   -3.4000    0.0000 C   0  0  0  0  0  0  0  0  0  0  0  0
    2.6125   -3.9625    0.0000 C   0  0  0  0  0  0  0  0  0  0  0  0
  3  4  1  0
  4  2  2  0
  5  2  1  0
  6  5  2  0
  7  6  1  0
  8  4  1  0
  9  6  1  0
 10  3  1  0
 11  5  1  0
 12  8  1  0
 13 11  2  0
 14  2  1  0
 15 17  1  0
 16  7  1  0
 17 14  1  0
 17 18  1  1
  9 13  1  0
  3  7  2  0
 12 10  2  0
M  END

> <chembl_id>
CHEMBL263083

> <chembl_pref_name>
None

$$$$

     RDKit          2D

 18 19  0  0  0  0  0  0  0  0999 V2000
    1.2375    0.3125    0.0000 Cl  0  0  0  0  0  0  0  0  0  0  0  0
   -1.4708   -0.3792    0.0000 C   0  0  0  0  0  0  0  0  0  0  0  0
   -2.4958   -0.2125    0.0000 C   0  0  0  0  0  0  0  0  0  0  0  0
   -1.9375   -0.0042    0.0000 C   0  0  0  0  0  0  0  0  0  0  0  0
   -1.5625   -0.9667    0.0000 C   0  0  0  0  0  0  0  0  0  0  0  0
   -2.1208   -1.1875    0.0000 C   0  0  0  0  0  0  0  0  0  0  0  0
   -2.5833   -0.8125    0.0000 C   0  0  0  0  0  0  0  0  0  0  0  0
   -1.9708    0.5958    0.0000 O   0  0  0  0  0  0  0  0  0  0  0  0
   -2.0833   -1.7792    0.0000 O   0  0  0  0  0  0  0  0  0  0  0  0
   -2.8708    0.2500    0.0000 C   0  0  0  0  0  0  0  0  0  0  0  0
   -1.1833   -1.4250    0.0000 C   0  0  0  0  0  0  0  0  0  0  0  0
   -2.5458    0.7500    0.0000 C   0  0  0  0  0  0  0  0  0  0  0  0
   -1.4958   -1.9292    0.0000 C   0  0  0  0  0  0  0  0  0  0  0  0
   -0.9125   -0.1542    0.0000 C   0  0  0  0  0  0  0  0  0  0  0  0
    0.0292   -0.1750    0.0000 N   0  0  0  0  0  0  0  0  0  0  0  0
   -3.1375   -1.0250    0.0000 Br  0  0  0  0  0  0  0  0  0  0  0  0
   -0.4458   -0.5250    0.0000 C   0  0  0  0  0  0  0  0  0  0  0  0
   -0.2333   -1.0875    0.0000 C   0  0  0  0  0  0  0  0  0  0  0  0
  3  4  1  0
  4  2  2  0
  5  2  1  0
  6  5  2  0
  7  6  1  0
  8  4  1  0
  9  6  1  0
 10  3  1  0
 11  5  1  0
 12  8  1  0
 13 11  2  0
 14  2  1  0
 15 17  1  0
 16  7  1  0
 17 14  1  0
 17 18  1  6
  9 13  1  0
  3  7  2  0
 12 10  2  0
M  END

> <chembl_id>
CHEMBL6706

> <chembl_pref_name>
None

$$$$

     RDKit          2D

 17 19  0  0  0  0  0  0  0  0999 V2000
    5.6917   -6.1042    0.0000 C   0  0  0  0  0  0  0  0  0  0  0  0
    4.9292   -6.5500    0.0000 N   0  0  0  0  0  0  0  0  0  0  0  0
    5.6917   -5.2167    0.0000 C   0  0  0  0  0  0  0  0  0  0  0  0
    4.9250   -4.7792    0.0000 N   0  0  0  0  0  0  0  0  0  0  0  0
    6.4625   -6.5417    0.0000 N   0  0  0  0  0  0  0  0  0  0  0  0
    4.1667   -6.1042    0.0000 C   0  0  0  0  0  0  0  0  0  0  0  0
    4.1667   -5.2250    0.0000 C   0  0  0  0  0  0  0  0  0  0  0  0
    7.9875   -7.4167    0.0000 N   0  0  0  0  0  0  0  0  0  0  0  0
    6.4542   -4.7667    0.0000 N   0  0  0  0  0  0  0  0  0  0  0  0
    7.2167   -6.0917    0.0000 C   0  0  0  0  0  0  0  0  0  0  0  0
    6.4625   -7.4250    0.0000 C   0  0  0  0  0  0  0  0  0  0  0  0
    7.2250   -7.8625    0.0000 C   0  0  0  0  0  0  0  0  0  0  0  0
    7.9875   -6.5375    0.0000 C   0  0  0  0  0  0  0  0  0  0  0  0
    3.4000   -6.5542    0.0000 C   0  0  0  0  0  0  0  0  0  0  0  0
    3.4000   -4.7792    0.0000 C   0  0  0  0  0  0  0  0  0  0  0  0
    2.6375   -6.1125    0.0000 C   0  0  0  0  0  0  0  0  0  0  0  0
    2.6375   -5.2250    0.0000 C   0  0  0  0  0  0  0  0  0  0  0  0
  2  1  2  0
  3  1  1  0
  4  3  2  0
  5  1  1  0
  6  2  1  0
  7  4  1  0
  8 12  1  0
  9  3  1  0
 10  5  1  0
 11  5  1  0
 12 11  1  0
 13 10  1  0
 14  6  2  0
 15  7  2  0
 16 14  1  0
 17 15  1  0
  8 13  1  0
  6  7  1  0
 16 17  2  0
M  END

> <chembl_id>
CHEMBL266432

> <chembl_pref_name>
None

$$$$

     RDKit          2D

  9  9  0  0  0  0  0  0  0  0999 V2000
    6.0750   -2.5667    0.0000 C   0  0  0  0  0  0  0  0  0  0  0  0
    5.3625   -2.9792    0.0000 N   0  0  0  0  0  0  0  0  0  0  0  0
    6.7917   -2.9792    0.0000 N   0  0  0  0  0  0  0  0  0  0  0  0
    4.6542   -2.5667    0.0000 C   0  0  0  0  0  0  0  0  0  0  0  0
    6.0750   -1.7417    0.0000 C   0  0  0  0  0  0  0  0  0  0  0  0
    5.3625   -1.3292    0.0000 C   0  0  0  0  0  0  0  0  0  0  0  0
    4.6542   -1.7417    0.0000 C   0  0  0  0  0  0  0  0  0  0  0  0
    3.9375   -2.9792    0.0000 C   0  0  0  0  0  0  0  0  0  0  0  0
    5.3625   -0.5042    0.0000 C   0  0  0  0  0  0  0  0  0  0  0  0
  2  1  2  0
  3  1  1  0
  4  2  1  0
  5  1  1  0
  6  5  1  0
  7  6  1  0
  8  4  1  0
  9  6  1  0
  4  7  1  0
M  END

> <chembl_id>
CHEMBL269076

> <chembl_pref_name>
None

$$$$

     RDKit          2D

 16 18  0  0  0  0  0  0  0  0999 V2000
    4.0667   -5.0125    0.0000 C   0  0  0  0  0  0  0  0  0  0  0  0
    4.7167   -5.4042    0.0000 C   0  0  0  0  0  0  0  0  0  0  0  0
    4.7167   -6.1042    0.0000 C   0  0  0  0  0  0  0  0  0  0  0  0
    4.0125   -6.4542    0.0000 C   0  0  0  0  0  0  0  0  0  0  0  0
    3.6125   -5.7250    0.0000 C   0  0  0  0  0  0  0  0  0  0  0  0
    3.3500   -5.3875    0.0000 C   0  0  0  0  0  0  0  0  0  0  0  0
    3.3500   -6.0917    0.0000 C   0  0  0  0  0  0  0  0  0  0  0  0
    5.3500   -5.1000    0.0000 C   0  0  0  0  0  0  0  0  0  0  0  0
    5.3792   -6.3792    0.0000 N   0  0  0  0  0  0  0  0  0  0  0  0
    5.8792   -5.3875    0.0000 C   0  0  0  0  0  0  0  0  0  0  0  0
    5.3500   -4.4875    0.0000 C   0  0  0  0  0  0  0  0  0  0  0  0
    5.9625   -6.0917    0.0000 C   0  0  0  0  0  0  0  0  0  0  0  0
    6.7917   -6.2792    0.0000 C   0  0  0  0  0  0  0  0  0  0  0  0
    6.4042   -5.1000    0.0000 C   0  0  0  0  0  0  0  0  0  0  0  0
    5.8792   -4.1792    0.0000 C   0  0  0  0  0  0  0  0  0  0  0  0
    6.4042   -4.4875    0.0000 C   0  0  0  0  0  0  0  0  0  0  0  0
  2  1  1  0
  3  2  1  0
  4  5  1  0
  5  1  1  0
  6  1  1  0
  7  6  1  0
  8  2  1  0
  9  3  1  0
 10  8  1  0
 11  8  2  0
 12  9  1  0
 13 12  1  0
 14 10  2  0
 15 11  1  0
 16 14  1  0
  4  7  1  0
  3  4  1  0
 15 16  2  0
M  END

> <chembl_id>
CHEMBL7010

> <chembl_pref_name>
FENCAMFAMIN

$$$$

     RDKit          2D

 13 14  0  0  0  0  0  0  0  0999 V2000
    4.4000   -3.8542    0.0000 C   0  0  0  0  0  0  0  0  0  0  0  0
    4.2250   -3.1667    0.0000 C   0  0  0  0  0  0  0  0  0  0  0  0
    5.0417   -4.2417    0.0000 C   0  0  0  0  0  0  0  0  0  0  0  0
    4.1000   -4.6125    0.0000 C   0  0  0  0  0  0  0  0  0  0  0  0
    4.7042   -4.9292    0.0000 C   0  0  0  0  0  0  0  0  0  0  0  0
    3.7042   -4.2292    0.0000 C   0  0  0  0  0  0  0  0  0  0  0  0
    5.6792   -3.6792    0.0000 N   0  0  0  0  0  0  0  0  0  0  0  0
    3.4000   -4.8667    0.0000 C   0  0  0  0  0  0  0  0  0  0  0  0
    4.9792   -3.2667    0.0000 C   0  0  0  0  0  0  0  0  0  0  0  0
    4.8042   -2.5792    0.0000 C   0  0  0  0  0  0  0  0  0  0  0  0
    3.4250   -2.9542    0.0000 C   0  0  0  0  0  0  0  0  0  0  0  0
    5.4292   -2.9292    0.0000 C   0  0  0  0  0  0  0  0  0  0  0  0
    6.4792   -3.9000    0.0000 C   0  0  0  0  0  0  0  0  0  0  0  0
  2  1  1  0
  3  1  1  0
  4  2  1  0
  5  3  1  0
  6  1  1  0
  7  3  1  0
  8  6  1  0
  9  1  1  0
 10  2  1  0
 11  2  1  0
 12  7  1  0
 13  7  1  0
  4  8  1  0
  5  4  1  0
M  END

> <chembl_id>
CHEMBL268543

> <chembl_pref_name>
None

$$$$

     RDKit          2D

 31 32  0  0  1  0  0  0  0  0999 V2000
    4.2667    0.8500    0.0000 N   0  0  0  0  0  0  0  0  0  0  0  0
    4.8417   -0.5417    0.0000 C   0  0  0  0  0  0  0  0  0  0  0  0
    5.6542    1.4333    0.0000 C   0  0  0  0  0  0  0  0  0  0  0  0
    4.2667    0.0333    0.0000 C   0  0  0  0  0  0  0  0  0  0  0  0
    4.8417    1.4333    0.0000 C   0  0  0  0  0  0  0  0  0  0  0  0
    6.2417    0.8500    0.0000 N   0  0  0  0  0  0  0  0  0  0  0  0
    4.6292   -1.3292    0.0000 C   0  0  0  0  0  0  0  0  0  0  0  0
    3.5917   -2.3417    0.0000 C   0  0  0  0  0  0  0  0  0  0  0  0
    3.4792   -0.1792    0.0000 C   0  0  0  0  0  0  0  0  0  0  0  0
    3.3542   -3.1375    0.0000 C   0  0  0  0  0  0  0  0  0  0  0  0
    3.8292   -1.5417    0.0000 C   0  0  0  0  0  0  0  0  0  0  0  0
    5.6542   -0.5417    0.0000 C   0  0  0  0  0  0  0  0  0  0  0  0
    5.9792    2.1958    0.0000 O   0  0  0  0  0  0  0  0  0  0  0  0
    6.2417    0.0333    0.0000 C   0  0  0  0  0  0  0  0  0  0  0  0
    3.2667   -0.9792    0.0000 C   0  0  0  0  0  0  0  0  0  0  0  0
    3.4917    1.1708    0.0000 C   0  0  0  0  0  0  0  0  0  0  0  0
    4.5292    2.2083    0.0000 C   0  0  0  0  0  0  0  0  0  0  0  0
    5.2167   -1.9042    0.0000 O   0  0  0  0  0  0  0  0  0  0  0  0
    3.1167   -3.9292    0.0000 C   0  0  0  0  0  0  0  0  0  0  0  0
    7.6667    0.2458    0.0000 O   0  0  0  0  0  0  0  0  0  0  0  0
    7.0167   -0.2750    0.0000 C   0  0  0  0  0  0  0  0  0  0  0  0
    3.7167    2.3333    0.0000 C   0  0  0  0  0  0  0  0  0  0  0  0
    5.0542    2.8583    0.0000 C   0  0  0  0  0  0  0  0  0  0  0  0
    5.0042   -2.7000    0.0000 C   0  0  0  0  0  0  0  0  0  0  0  0
    3.6917   -4.5292    0.0000 C   0  0  0  0  0  0  0  0  0  0  0  0
    4.1542   -8.0667    0.0000 C   0  0  0  0  0  0  0  0  0  0  0  0
    4.3792   -7.2792    0.0000 C   0  0  0  0  0  0  0  0  0  0  0  0
    3.8042   -6.6917    0.0000 C   0  0  0  0  0  0  0  0  0  0  0  0
    3.4542   -5.3125    0.0000 C   0  0  0  0  0  0  0  0  0  0  0  0
    4.0292   -5.9042    0.0000 C   0  0  0  0  0  0  0  0  0  0  0  0
    4.7292   -8.6542    0.0000 C   0  0  0  0  0  0  0  0  0  0  0  0
  2  4  2  0
  3  5  1  0
  4  1  1  0
  5  1  1  0
  6  3  1  0
  7  2  1  0
  8 11  1  0
  9  4  1  0
 10  8  3  0
 11 15  1  0
 12  2  1  0
 13  3  2  0
 14  6  1  0
 15  9  2  0
 16  1  1  0
  5 17  1  1
 18  7  1  0
 19 10  1  0
 20 21  1  0
 14 21  1  6
 22 17  1  0
 23 17  1  0
 24 18  1  0
 25 19  1  0
 26 27  1  0
 27 28  1  0
 28 30  1  0
 29 25  1  0
 30 29  1  0
 31 26  1  0
 12 14  1  0
  7 11  2  0
M  END

> <chembl_id>
CHEMBL7078

> <chembl_pref_name>
None

$$$$

     RDKit          2D

 19 20  0  0  1  0  0  0  0  0999 V2000
    3.7167   -2.5125    0.0000 N   0  0  0  0  0  0  0  0  0  0  0  0
    5.1292   -1.9250    0.0000 C   0  0  0  0  0  0  0  0  0  0  0  0
    4.3042   -1.9250    0.0000 C   0  0  0  0  0  0  0  0  0  0  0  0
    5.7167   -2.5125    0.0000 N   0  0  0  0  0  0  0  0  0  0  0  0
    3.7292   -3.3375    0.0000 C   0  0  0  0  0  0  0  0  0  0  0  0
    4.3042   -3.9167    0.0000 C   0  0  0  0  0  0  0  0  0  0  0  0
    5.4417   -1.1667    0.0000 O   0  0  0  0  0  0  0  0  0  0  0  0
    5.7167   -3.3375    0.0000 C   0  0  0  0  0  0  0  0  0  0  0  0
    5.1292   -3.9167    0.0000 C   0  0  0  0  0  0  0  0  0  0  0  0
    2.9542   -2.1917    0.0000 C   0  0  0  0  0  0  0  0  0  0  0  0
    3.9917   -1.1667    0.0000 C   0  0  0  0  0  0  0  0  0  0  0  0
    2.9292   -3.5500    0.0000 C   0  0  0  0  0  0  0  0  0  0  0  0
    4.0917   -4.7042    0.0000 C   0  0  0  0  0  0  0  0  0  0  0  0
    6.5792   -4.4667    0.0000 O   0  0  0  0  0  0  0  0  0  0  0  0
    6.4792   -3.6542    0.0000 C   0  0  0  0  0  0  0  0  0  0  0  0
    3.1667   -1.0542    0.0000 C   0  0  0  0  0  0  0  0  0  0  0  0
    4.4917   -0.5042    0.0000 C   0  0  0  0  0  0  0  0  0  0  0  0
    2.7167   -4.3417    0.0000 C   0  0  0  0  0  0  0  0  0  0  0  0
    3.3042   -4.9167    0.0000 C   0  0  0  0  0  0  0  0  0  0  0  0
  2  3  1  0
  3  1  1  0
  4  2  1  0
  5  1  1  0
  6  5  2  0
  7  2  2  0
  8  9  1  0
  9  6  1  0
 10  1  1  0
  3 11  1  1
 12  5  1  0
 13  6  1  0
 14 15  1  0
  8 15  1  6
 16 11  1  0
 17 11  1  0
 18 12  2  0
 19 18  1  0
 13 19  2  0
  8  4  1  0
M  END

> <chembl_id>
CHEMBL267144

> <chembl_pref_name>
None

$$$$

     RDKit          2D

 21 23  0  0  0  0  0  0  0  0999 V2000
    1.4250   -0.5667    0.0000 C   0  0  0  0  0  0  0  0  0  0  0  0
    2.2042   -1.6500    0.0000 N   0  0  0  0  0  0  0  0  0  0  0  0
    1.4250   -1.3917    0.0000 C   0  0  0  0  0  0  0  0  0  0  0  0
    2.2042   -0.3125    0.0000 N   0  0  0  0  0  0  0  0  0  0  0  0
    0.7042   -0.1542    0.0000 C   0  0  0  0  0  0  0  0  0  0  0  0
    2.6917   -0.9792    0.0000 C   0  0  0  0  0  0  0  0  0  0  0  0
    0.7042   -1.8125    0.0000 N   0  0  0  0  0  0  0  0  0  0  0  0
   -0.0083   -0.5750    0.0000 N   0  0  0  0  0  0  0  0  0  0  0  0
    2.4667   -2.4375    0.0000 C   0  0  0  0  0  0  0  0  0  0  0  0
    3.2667   -2.6042    0.0000 C   0  0  0  0  0  0  0  0  0  0  0  0
   -0.0083   -1.4000    0.0000 C   0  0  0  0  0  0  0  0  0  0  0  0
    0.7042    0.6708    0.0000 N   0  0  0  0  0  0  0  0  0  0  0  0
    3.8167   -1.9917    0.0000 C   0  0  0  0  0  0  0  0  0  0  0  0
    3.6042   -1.1917    0.0000 F   0  0  0  0  0  0  0  0  0  0  0  0
    3.5250   -3.3917    0.0000 C   0  0  0  0  0  0  0  0  0  0  0  0
   -0.0083    1.0750    0.0000 C   0  0  0  0  0  0  0  0  0  0  0  0
    1.4167    1.0833    0.0000 C   0  0  0  0  0  0  0  0  0  0  0  0
    4.6250   -2.1625    0.0000 C   0  0  0  0  0  0  0  0  0  0  0  0
   -0.0125    1.9000    0.0000 C   0  0  0  0  0  0  0  0  0  0  0  0
    4.3292   -3.5625    0.0000 C   0  0  0  0  0  0  0  0  0  0  0  0
    4.8792   -2.9500    0.0000 C   0  0  0  0  0  0  0  0  0  0  0  0
  2  3  1  0
  3  1  1  0
  4  1  1  0
  5  1  2  0
  6  4  2  0
  7  3  2  0
  8  5  1  0
  9  2  1  0
 10  9  1  0
 11  8  2  0
 12  5  1  0
 13 10  1  0
 14 13  1  0
 15 10  2  0
 16 12  1  0
 17 12  1  0
 18 13  2  0
 19 16  1  0
 20 15  1  0
 21 20  2  0
  2  6  1  0
 11  7  1  0
 18 21  1  0
M  END

> <chembl_id>
CHEMBL7057

> <chembl_pref_name>
None

$$$$

     RDKit          2D

 23 26  0  0  0  0  0  0  0  0999 V2000
    1.4250   -0.5667    0.0000 C   0  0  0  0  0  0  0  0  0  0  0  0
    2.2042   -1.6500    0.0000 N   0  0  0  0  0  0  0  0  0  0  0  0
    1.4250   -1.3917    0.0000 C   0  0  0  0  0  0  0  0  0  0  0  0
    2.2042   -0.3125    0.0000 N   0  0  0  0  0  0  0  0  0  0  0  0
    0.7042   -0.1542    0.0000 C   0  0  0  0  0  0  0  0  0  0  0  0
    2.6917   -0.9792    0.0000 C   0  0  0  0  0  0  0  0  0  0  0  0
    0.7042   -1.8125    0.0000 N   0  0  0  0  0  0  0  0  0  0  0  0
    2.4667   -2.4375    0.0000 C   0  0  0  0  0  0  0  0  0  0  0  0
   -0.0083   -0.5750    0.0000 N   0  0  0  0  0  0  0  0  0  0  0  0
    3.2667   -2.6042    0.0000 C   0  0  0  0  0  0  0  0  0  0  0  0
    0.7042    0.6708    0.0000 N   0  0  0  0  0  0  0  0  0  0  0  0
   -0.0083   -1.4000    0.0000 C   0  0  0  0  0  0  0  0  0  0  0  0
    3.8167   -1.9917    0.0000 C   0  0  0  0  0  0  0  0  0  0  0  0
    3.6042   -1.1917    0.0000 F   0  0  0  0  0  0  0  0  0  0  0  0
   -0.0083    1.0750    0.0000 C   0  0  0  0  0  0  0  0  0  0  0  0
    3.5250   -3.3917    0.0000 C   0  0  0  0  0  0  0  0  0  0  0  0
    4.6250   -2.1625    0.0000 C   0  0  0  0  0  0  0  0  0  0  0  0
   -0.0958    1.9000    0.0000 C   0  0  0  0  0  0  0  0  0  0  0  0
   -0.7583    0.7458    0.0000 C   0  0  0  0  0  0  0  0  0  0  0  0
    4.3292   -3.5625    0.0000 C   0  0  0  0  0  0  0  0  0  0  0  0
    4.8792   -2.9500    0.0000 C   0  0  0  0  0  0  0  0  0  0  0  0
   -1.3125    1.3583    0.0000 C   0  0  0  0  0  0  0  0  0  0  0  0
   -0.9083    2.0708    0.0000 C   0  0  0  0  0  0  0  0  0  0  0  0
  2  3  1  0
  3  1  1  0
  4  1  1  0
  5  1  2  0
  6  4  2  0
  7  3  2  0
  8  2  1  0
  9  5  1  0
 10  8  1  0
 11  5  1  0
 12  9  2  0
 13 10  1  0
 14 13  1  0
 15 11  1  0
 16 10  2  0
 17 13  2  0
 18 15  1  0
 19 15  1  0
 20 16  1  0
 21 20  2  0
 22 19  1  0
 23 18  1  0
  2  6  1  0
  7 12  1  0
 23 22  1  0
 17 21  1  0
M  END

> <chembl_id>
CHEMBL266930

> <chembl_pref_name>
None

$$$$

     RDKit          2D

 20 22  0  0  0  0  0  0  0  0999 V2000
    1.9292   -2.6500    0.0000 N   0  0  0  0  0  0  0  0  0  0  0  0
    1.1417   -1.5667    0.0000 C   0  0  0  0  0  0  0  0  0  0  0  0
    1.1417   -2.3917    0.0000 C   0  0  0  0  0  0  0  0  0  0  0  0
    1.9292   -1.3125    0.0000 N   0  0  0  0  0  0  0  0  0  0  0  0
    2.4167   -1.9792    0.0000 C   0  0  0  0  0  0  0  0  0  0  0  0
    2.9917   -3.6042    0.0000 C   0  0  0  0  0  0  0  0  0  0  0  0
    0.4292   -1.1542    0.0000 C   0  0  0  0  0  0  0  0  0  0  0  0
    2.1875   -3.4375    0.0000 C   0  0  0  0  0  0  0  0  0  0  0  0
    0.4292   -2.8125    0.0000 N   0  0  0  0  0  0  0  0  0  0  0  0
   -0.2833   -1.5750    0.0000 N   0  0  0  0  0  0  0  0  0  0  0  0
   -0.2833   -2.4000    0.0000 C   0  0  0  0  0  0  0  0  0  0  0  0
    3.5417   -2.9917    0.0000 C   0  0  0  0  0  0  0  0  0  0  0  0
    3.2417   -4.3917    0.0000 C   0  0  0  0  0  0  0  0  0  0  0  0
    0.4250   -0.3292    0.0000 N   0  0  0  0  0  0  0  0  0  0  0  0
    4.3417   -3.1625    0.0000 C   0  0  0  0  0  0  0  0  0  0  0  0
    4.0542   -4.5625    0.0000 C   0  0  0  0  0  0  0  0  0  0  0  0
    3.2792   -2.2125    0.0000 F   0  0  0  0  0  0  0  0  0  0  0  0
    4.6042   -3.9500    0.0000 C   0  0  0  0  0  0  0  0  0  0  0  0
    4.3042   -5.3500    0.0000 F   0  0  0  0  0  0  0  0  0  0  0  0
   -0.2875    0.0750    0.0000 C   0  0  0  0  0  0  0  0  0  0  0  0
  2  3  1  0
  3  1  1  0
  4  5  2  0
  5  1  1  0
  6  8  1  0
  7  2  2  0
  8  1  1  0
  9  3  2  0
 10 11  2  0
 11  9  1  0
 12  6  1  0
 13  6  2  0
 14  7  1  0
 15 12  2  0
 16 13  1  0
 17 12  1  0
 18 16  2  0
 19 16  1  0
 20 14  1  0
  4  2  1  0
  7 10  1  0
 15 18  1  0
M  END

> <chembl_id>
CHEMBL6787

> <chembl_pref_name>
None

$$$$

     RDKit          2D

 21 23  0  0  0  0  0  0  0  0999 V2000
    1.6417   -1.0000    0.0000 C   0  0  0  0  0  0  0  0  0  0  0  0
    2.4292   -2.0792    0.0000 N   0  0  0  0  0  0  0  0  0  0  0  0
    1.6417   -1.8250    0.0000 C   0  0  0  0  0  0  0  0  0  0  0  0
    2.4292   -0.7417    0.0000 N   0  0  0  0  0  0  0  0  0  0  0  0
    0.9292   -0.5875    0.0000 C   0  0  0  0  0  0  0  0  0  0  0  0
    3.4917   -3.0375    0.0000 C   0  0  0  0  0  0  0  0  0  0  0  0
    2.9167   -1.4125    0.0000 C   0  0  0  0  0  0  0  0  0  0  0  0
    2.6875   -2.8667    0.0000 C   0  0  0  0  0  0  0  0  0  0  0  0
    0.9292   -2.2417    0.0000 N   0  0  0  0  0  0  0  0  0  0  0  0
    0.2167   -1.0000    0.0000 N   0  0  0  0  0  0  0  0  0  0  0  0
    0.2167   -1.8292    0.0000 C   0  0  0  0  0  0  0  0  0  0  0  0
    0.9250    0.2375    0.0000 N   0  0  0  0  0  0  0  0  0  0  0  0
    3.7417   -3.8167    0.0000 C   0  0  0  0  0  0  0  0  0  0  0  0
    4.0417   -2.4250    0.0000 C   0  0  0  0  0  0  0  0  0  0  0  0
    3.1917   -4.4292    0.0000 F   0  0  0  0  0  0  0  0  0  0  0  0
    3.7792   -1.6417    0.0000 F   0  0  0  0  0  0  0  0  0  0  0  0
    5.1042   -3.3792    0.0000 C   0  0  0  0  0  0  0  0  0  0  0  0
    4.8417   -2.5917    0.0000 C   0  0  0  0  0  0  0  0  0  0  0  0
    4.5542   -3.9917    0.0000 C   0  0  0  0  0  0  0  0  0  0  0  0
    0.2125    0.6458    0.0000 C   0  0  0  0  0  0  0  0  0  0  0  0
    1.6417    0.6500    0.0000 C   0  0  0  0  0  0  0  0  0  0  0  0
  2  3  1  0
  3  1  1  0
  4  1  1  0
  5  1  2  0
  6  8  1  0
  7  4  2  0
  8  2  1  0
  9  3  2  0
 10  5  1  0
 11 10  2  0
 12  5  1  0
 13  6  2  0
 14  6  1  0
 15 13  1  0
 16 14  1  0
 17 18  1  0
 18 14  2  0
 19 13  1  0
 20 12  1  0
 21 12  1  0
  2  7  1  0
 11  9  1  0
 19 17  2  0
M  END

> <chembl_id>
CHEMBL6817

> <chembl_pref_name>
None

$$$$

     RDKit          2D

 20 22  0  0  0  0  0  0  0  0999 V2000
    2.4292   -2.0792    0.0000 N   0  0  0  0  0  0  0  0  0  0  0  0
    1.6417   -1.0000    0.0000 C   0  0  0  0  0  0  0  0  0  0  0  0
    1.6417   -1.8250    0.0000 C   0  0  0  0  0  0  0  0  0  0  0  0
    2.4292   -0.7417    0.0000 N   0  0  0  0  0  0  0  0  0  0  0  0
    3.4917   -3.0375    0.0000 C   0  0  0  0  0  0  0  0  0  0  0  0
    2.9167   -1.4125    0.0000 C   0  0  0  0  0  0  0  0  0  0  0  0
    2.6875   -2.8667    0.0000 C   0  0  0  0  0  0  0  0  0  0  0  0
    0.9292   -0.5875    0.0000 C   0  0  0  0  0  0  0  0  0  0  0  0
    0.9292   -2.2417    0.0000 N   0  0  0  0  0  0  0  0  0  0  0  0
    0.2167   -1.0000    0.0000 N   0  0  0  0  0  0  0  0  0  0  0  0
    0.2167   -1.8292    0.0000 C   0  0  0  0  0  0  0  0  0  0  0  0
    3.7417   -3.8167    0.0000 C   0  0  0  0  0  0  0  0  0  0  0  0
    4.0417   -2.4250    0.0000 C   0  0  0  0  0  0  0  0  0  0  0  0
    0.9250    0.2375    0.0000 N   0  0  0  0  0  0  0  0  0  0  0  0
    3.1917   -4.4292    0.0000 F   0  0  0  0  0  0  0  0  0  0  0  0
    3.7792   -1.6417    0.0000 F   0  0  0  0  0  0  0  0  0  0  0  0
    5.1042   -3.3792    0.0000 C   0  0  0  0  0  0  0  0  0  0  0  0
    4.8417   -2.5917    0.0000 C   0  0  0  0  0  0  0  0  0  0  0  0
    4.5542   -3.9917    0.0000 C   0  0  0  0  0  0  0  0  0  0  0  0
    0.2125    0.6458    0.0000 C   0  0  0  0  0  0  0  0  0  0  0  0
  2  3  1  0
  3  1  1  0
  4  6  2  0
  5  7  1  0
  6  1  1  0
  7  1  1  0
  8  2  2  0
  9  3  2  0
 10 11  2  0
 11  9  1  0
 12  5  2  0
 13  5  1  0
 14  8  1  0
 15 12  1  0
 16 13  1  0
 17 18  1  0
 18 13  2  0
 19 12  1  0
 20 14  1  0
  4  2  1  0
 19 17  2  0
  8 10  1  0
M  END

> <chembl_id>
CHEMBL267163

> <chembl_pref_name>
None

$$$$

     RDKit          2D

134137  0  0  1  0  0  0  0  0999 V2000
    7.9375    9.4125    0.0000 N   0  0  0  0  0  0  0  0  0  0  0  0
    7.3417   10.0000    0.0000 C   0  0  0  0  0  0  0  0  0  0  0  0
   -1.7625   12.0167    0.0000 C   0  0  0  0  0  0  0  0  0  0  0  0
   11.6917    1.0583    0.0000 C   0  0  0  0  0  0  0  0  0  0  0  0
   11.2500    0.3458    0.0000 C   0  0  0  0  0  0  0  0  0  0  0  0
   -0.9583   12.2250    0.0000 C   0  0  0  0  0  0  0  0  0  0  0  0
    5.1667   10.1500    0.0000 C   0  0  0  0  0  0  0  0  0  0  0  0
   -2.3458   12.6042    0.0000 N   0  0  0  0  0  0  0  0  0  0  0  0
   11.3042    1.7875    0.0000 N   0  0  0  0  0  0  0  0  0  0  0  0
   11.1625   -2.5292    0.0000 N   0  0  0  0  0  0  0  0  0  0  0  0
   11.5500   -3.2667    0.0000 C   0  0  0  0  0  0  0  0  0  0  0  0
    5.9625   10.3750    0.0000 N   0  0  0  0  0  0  0  0  0  0  0  0
    9.9417   -1.7667    0.0000 C   0  0  0  0  0  0  0  0  0  0  0  0
    3.7792   10.5292    0.0000 N   0  0  0  0  0  0  0  0  0  0  0  0
    6.5500    9.7792    0.0000 C   0  0  0  0  0  0  0  0  0  0  0  0
   -3.1458   12.3792    0.0000 C   0  0  0  0  0  0  0  0  0  0  0  0
   11.6000   -1.8292    0.0000 C   0  0  0  0  0  0  0  0  0  0  0  0
    3.1917   11.1167    0.0000 C   0  0  0  0  0  0  0  0  0  0  0  0
   11.7417    2.4875    0.0000 C   0  0  0  0  0  0  0  0  0  0  0  0
   11.4042    4.6542    0.0000 C   0  0  0  0  0  0  0  0  0  0  0  0
   11.5500    8.9875    0.0000 C   0  0  0  0  0  0  0  0  0  0  0  0
    9.1292   10.2792    0.0000 C   0  0  0  0  0  0  0  0  0  0  0  0
    8.7542    9.5417    0.0000 C   0  0  0  0  0  0  0  0  0  0  0  0
   11.8875    6.8167    0.0000 C   0  0  0  0  0  0  0  0  0  0  0  0
    1.0125   11.2667    0.0000 C   0  0  0  0  0  0  0  0  0  0  0  0
   11.4500    6.1042    0.0000 N   0  0  0  0  0  0  0  0  0  0  0  0
   11.6417   -0.3875    0.0000 N   0  0  0  0  0  0  0  0  0  0  0  0
   11.8417    5.3667    0.0000 C   0  0  0  0  0  0  0  0  0  0  0  0
    9.6167   -3.0792    0.0000 N   0  0  0  0  0  0  0  0  0  0  0  0
   11.1042   -3.9750    0.0000 C   0  0  0  0  0  0  0  0  0  0  0  0
   -0.3708   11.6417    0.0000 N   0  0  0  0  0  0  0  0  0  0  0  0
   11.9875    9.6792    0.0000 C   0  0  0  0  0  0  0  0  0  0  0  0
    1.8042   11.4792    0.0000 N   0  0  0  0  0  0  0  0  0  0  0  0
   11.7917    3.9333    0.0000 N   0  0  0  0  0  0  0  0  0  0  0  0
    4.5792   10.7417    0.0000 C   0  0  0  0  0  0  0  0  0  0  0  0
    2.3917   10.8917    0.0000 C   0  0  0  0  0  0  0  0  0  0  0  0
   10.2542   -2.5417    0.0000 C   0  0  0  0  0  0  0  0  0  0  0  0
   11.1500   11.1125    0.0000 C   0  0  0  0  0  0  0  0  0  0  0  0
   11.9417    8.2542    0.0000 N   0  0  0  0  0  0  0  0  0  0  0  0
   -3.7333   12.9792    0.0000 C   0  0  0  0  0  0  0  0  0  0  0  0
   11.2042   -1.0917    0.0000 C   0  0  0  0  0  0  0  0  0  0  0  0
    2.1792   10.1000    0.0000 C   0  0  0  0  0  0  0  0  0  0  0  0
   -3.5208   13.7792    0.0000 C   0  0  0  0  0  0  0  0  0  0  0  0
   11.3500    3.2333    0.0000 C   0  0  0  0  0  0  0  0  0  0  0  0
   11.6000   10.4167    0.0000 N   0  0  0  0  0  0  0  0  0  0  0  0
    9.1167   -1.8292    0.0000 C   0  0  0  0  0  0  0  0  0  0  0  0
   10.3792   -1.0625    0.0000 C   0  0  0  0  0  0  0  0  0  0  0  0
   -4.5333   12.7625    0.0000 N   0  0  0  0  0  0  0  0  0  0  0  0
    9.9500   10.3167    0.0000 N   0  0  0  0  0  0  0  0  0  0  0  0
   10.9542   -8.2917    0.0000 C   0  0  0  0  0  0  0  0  0  0  0  0
    0.4250   11.8542    0.0000 C   0  0  0  0  0  0  0  0  0  0  0  0
   11.0125   -6.8542    0.0000 N   0  0  0  0  0  0  0  0  0  0  0  0
   11.5042    7.5417    0.0000 C   0  0  0  0  0  0  0  0  0  0  0  0
   -2.7208   13.9917    0.0000 C   0  0  0  0  0  0  0  0  0  0  0  0
    2.7667    9.5042    0.0000 C   0  0  0  0  0  0  0  0  0  0  0  0
   11.5000   -4.7042    0.0000 N   0  0  0  0  0  0  0  0  0  0  0  0
   11.4500   -6.1500    0.0000 C   0  0  0  0  0  0  0  0  0  0  0  0
   10.3250   11.0667    0.0000 N   0  0  0  0  0  0  0  0  0  0  0  0
    8.9167   -2.6292    0.0000 C   0  0  0  0  0  0  0  0  0  0  0  0
   -4.7458   11.9542    0.0000 C   0  0  0  0  0  0  0  0  0  0  0  0
    7.5625   10.8042    0.0000 O   0  0  0  0  0  0  0  0  0  0  0  0
   11.4000   -7.5917    0.0000 C   0  0  0  0  0  0  0  0  0  0  0  0
    1.6500   13.6792    0.0000 C   0  0  0  0  0  0  0  0  0  0  0  0
   -0.7458   13.0292    0.0000 O   0  0  0  0  0  0  0  0  0  0  0  0
   10.4292    0.3708    0.0000 O   0  0  0  0  0  0  0  0  0  0  0  0
    4.9500    9.3542    0.0000 O   0  0  0  0  0  0  0  0  0  0  0  0
    8.6750   10.9792    0.0000 O   0  0  0  0  0  0  0  0  0  0  0  0
   10.5792    4.6917    0.0000 O   0  0  0  0  0  0  0  0  0  0  0  0
   10.7250    9.0167    0.0000 O   0  0  0  0  0  0  0  0  0  0  0  0
   -3.3500   11.5792    0.0000 O   0  0  0  0  0  0  0  0  0  0  0  0
    3.4042   11.9167    0.0000 O   0  0  0  0  0  0  0  0  0  0  0  0
   12.4250   -1.8542    0.0000 O   0  0  0  0  0  0  0  0  0  0  0  0
   12.5667    2.4583    0.0000 O   0  0  0  0  0  0  0  0  0  0  0  0
    0.7917   10.4750    0.0000 O   0  0  0  0  0  0  0  0  0  0  0  0
   12.7167    6.7792    0.0000 O   0  0  0  0  0  0  0  0  0  0  0  0
   10.5167    3.2583    0.0000 C   0  0  0  0  0  0  0  0  0  0  0  0
   11.5167   11.8500    0.0000 O   0  0  0  0  0  0  0  0  0  0  0  0
   10.2792   -3.9417    0.0000 O   0  0  0  0  0  0  0  0  0  0  0  0
   10.1292   -8.2667    0.0000 O   0  0  0  0  0  0  0  0  0  0  0  0
   -1.9833   11.2125    0.0000 C   0  0  0  0  0  0  0  0  0  0  0  0
   12.5250    1.0250    0.0000 C   0  0  0  0  0  0  0  0  0  0  0  0
   12.3667   -3.2917    0.0000 C   0  0  0  0  0  0  0  0  0  0  0  0
    2.5542    8.6917    0.0000 O   0  0  0  0  0  0  0  0  0  0  0  0
   -2.5083   14.8000    0.0000 O   0  0  0  0  0  0  0  0  0  0  0  0
   12.2750   -6.1792    0.0000 O   0  0  0  0  0  0  0  0  0  0  0  0
   -5.5458   11.7417    0.0000 O   0  0  0  0  0  0  0  0  0  0  0  0
    2.4542   13.8917    0.0000 O   0  0  0  0  0  0  0  0  0  0  0  0
    0.6417   12.6625    0.0000 C   0  0  0  0  0  0  0  0  0  0  0  0
   11.0625   -5.4042    0.0000 C   0  0  0  0  0  0  0  0  0  0  0  0
    6.3375    8.9792    0.0000 C   0  0  0  0  0  0  0  0  0  0  0  0
    7.8042    8.5875    0.0000 C   0  0  0  0  0  0  0  0  0  0  0  0
    4.8000   11.5417    0.0000 C   0  0  0  0  0  0  0  0  0  0  0  0
    1.4417   12.8792    0.0000 C   0  0  0  0  0  0  0  0  0  0  0  0
   10.0792    2.5458    0.0000 C   0  0  0  0  0  0  0  0  0  0  0  0
   11.3500   -9.0292    0.0000 O   0  0  0  0  0  0  0  0  0  0  0  0
   10.6750    7.5750    0.0000 C   0  0  0  0  0  0  0  0  0  0  0  0
    9.2125    1.1458    0.0000 C   0  0  0  0  0  0  0  0  0  0  0  0
    3.5750    9.7167    0.0000 O   0  0  0  0  0  0  0  0  0  0  0  0
   -2.1333   13.4042    0.0000 O   0  0  0  0  0  0  0  0  0  0  0  0
    1.0667   14.2667    0.0000 O   0  0  0  0  0  0  0  0  0  0  0  0
    9.4125    6.9000    0.0000 S   0  0  0  0  0  0  0  0  0  0  0  0
   12.6667    5.3417    0.0000 C   0  0  0  0  0  0  0  0  0  0  0  0
   12.8125    9.6542    0.0000 C   0  0  0  0  0  0  0  0  0  0  0  0
   10.4792    1.8125    0.0000 C   0  0  0  0  0  0  0  0  0  0  0  0
    9.2625    2.5833    0.0000 C   0  0  0  0  0  0  0  0  0  0  0  0
   14.6542   -9.1417    0.0000 N   0  0  0  0  0  0  0  0  0  0  0  0
   10.0417    1.1125    0.0000 C   0  0  0  0  0  0  0  0  0  0  0  0
    8.8250    1.8708    0.0000 C   0  0  0  0  0  0  0  0  0  0  0  0
   -1.3958   10.6250    0.0000 O   0  0  0  0  0  0  0  0  0  0  0  0
   12.9125    0.2875    0.0000 O   0  0  0  0  0  0  0  0  0  0  0  0
   12.7625   -4.0292    0.0000 O   0  0  0  0  0  0  0  0  0  0  0  0
    9.1292    8.7917    0.0000 C   0  0  0  0  0  0  0  0  0  0  0  0
    8.7750    0.4333    0.0000 O   0  0  0  0  0  0  0  0  0  0  0  0
   13.0667    4.6042    0.0000 O   0  0  0  0  0  0  0  0  0  0  0  0
   13.2042    8.9292    0.0000 O   0  0  0  0  0  0  0  0  0  0  0  0
    8.5417    8.2125    0.0000 C   0  0  0  0  0  0  0  0  0  0  0  0
    8.5250   -1.2500    0.0000 C   0  0  0  0  0  0  0  0  0  0  0  0
   -4.1583   11.3667    0.0000 C   0  0  0  0  0  0  0  0  0  0  0  0
   10.2375    6.8667    0.0000 C   0  0  0  0  0  0  0  0  0  0  0  0
   12.2250   -7.6167    0.0000 C   0  0  0  0  0  0  0  0  0  0  0  0
    8.1167   -2.8625    0.0000 C   0  0  0  0  0  0  0  0  0  0  0  0
   13.8292   -9.1167    0.0000 C   0  0  0  0  0  0  0  0  0  0  0  0
   -2.7750   10.9917    0.0000 C   0  0  0  0  0  0  0  0  0  0  0  0
   12.9667    1.7333    0.0000 C   0  0  0  0  0  0  0  0  0  0  0  0
   12.8125   -2.5917    0.0000 C   0  0  0  0  0  0  0  0  0  0  0  0
    8.9667    6.1917    0.0000 C   0  0  0  0  0  0  0  0  0  0  0  0
    5.5417    8.7667    0.0000 C   0  0  0  0  0  0  0  0  0  0  0  0
    6.9250    8.3917    0.0000 C   0  0  0  0  0  0  0  0  0  0  0  0
    5.5917   11.7667    0.0000 C   0  0  0  0  0  0  0  0  0  0  0  0
    4.2125   12.1292    0.0000 C   0  0  0  0  0  0  0  0  0  0  0  0
   12.6125   -8.3500    0.0000 C   0  0  0  0  0  0  0  0  0  0  0  0
   13.4417   -8.3792    0.0000 C   0  0  0  0  0  0  0  0  0  0  0  0
    7.7292   -1.4792    0.0000 C   0  0  0  0  0  0  0  0  0  0  0  0
    7.5250   -2.2875    0.0000 C   0  0  0  0  0  0  0  0  0  0  0  0
  2  1  1  0
  3  6  1  0
  4  9  1  1
  5  4  1  0
  6 31  1  0
  7 12  1  0
  3  8  1  6
  9 19  1  0
 10 17  1  0
 11 10  1  1
 15 12  1  6
 13 47  1  0
 35 14  1  1
 15  2  1  0
 16  8  1  0
 17 41  1  0
 18 14  1  0
 19 44  1  0
 20 28  1  0
 21 32  1  0
 23 22  1  1
 23  1  1  0
 24 53  1  0
 25 33  1  0
 26 24  1  0
 27  5  1  0
 28 26  1  1
 29 37  1  0
 30 11  1  0
 51 31  1  1
 32 45  1  1
 36 33  1  6
 34 20  1  0
 35  7  1  0
 36 18  1  0
 37 13  2  0
 38 58  1  0
 39 21  1  0
 40 16  1  0
 41 27  1  6
 36 42  1  0
 40 43  1  1
 44 34  1  6
 45 38  1  0
 46 13  1  0
 41 47  1  0
 48 40  1  0
 49 22  1  0
 50 62  1  0
 51 25  1  0
 52 57  1  0
 53 39  1  6
 54 43  1  0
 55 42  1  0
 56 30  1  0
 57 89  1  0
 58 49  1  0
 59 46  2  0
 60 48  1  0
 61  2  2  0
 62 52  1  1
 63 93  1  0
 64  6  2  0
 65  5  2  0
 66  7  2  0
 67 22  2  0
 68 20  2  0
 69 21  2  0
 70 16  2  0
 71 18  2  0
 72 17  2  0
 73 19  2  0
 74 25  2  0
 75 24  2  0
 44 76  1  0
 77 38  2  0
 78 30  2  0
 79 50  2  0
  3 80  1  0
  4 81  1  0
 11 82  1  0
 83 55  2  0
 84 54  2  0
 85 57  2  0
 86 60  2  0
 87 63  2  0
 51 88  1  0
 89 56  1  0
 15 90  1  0
 91  1  1  0
 35 92  1  0
 93 88  1  0
 94 76  1  0
 95 50  1  0
 53 96  1  0
 97108  2  0
 98 55  1  0
 99 54  1  0
100 63  1  0
101119  1  0
 28102  1  0
 32103  1  0
104 94  1  0
105 94  2  0
106122  1  0
107104  2  0
108105  1  0
 80109  1  6
 81110  1  1
 82111  1  1
 23112  1  0
113 97  1  0
114102  1  0
115103  1  0
116 91  1  0
117 46  1  0
118 60  1  0
119 96  1  0
 62120  1  0
121 59  1  0
122132  1  0
123 80  1  0
124 81  1  0
125 82  1  0
126101  1  0
127 90  1  0
128 90  1  0
129 92  1  0
130 92  1  0
131120  1  0
132131  1  0
133117  2  0
134133  1  0
112116  1  0
 97107  1  0
 29 59  1  0
134121  2  0
M  END

> <chembl_id>
CHEMBL386440

> <chembl_pref_name>
None

$$$$

     RDKit          2D

 84 84  0  0  1  0  0  0  0  0999 V2000
    4.3042    1.8958    0.0000 N   0  0  0  0  0  0  0  0  0  0  0  0
    3.7167    2.4750    0.0000 C   0  0  0  0  0  0  0  0  0  0  0  0
    5.4917    2.7583    0.0000 C   0  0  0  0  0  0  0  0  0  0  0  0
   -5.3958    4.4792    0.0000 C   0  0  0  0  0  0  0  0  0  0  0  0
    7.5125    3.5833    0.0000 C   0  0  0  0  0  0  0  0  0  0  0  0
   -4.5833    4.6917    0.0000 C   0  0  0  0  0  0  0  0  0  0  0  0
    1.5292    2.6333    0.0000 C   0  0  0  0  0  0  0  0  0  0  0  0
   -5.9708    5.0667    0.0000 N   0  0  0  0  0  0  0  0  0  0  0  0
    2.3292    2.8458    0.0000 N   0  0  0  0  0  0  0  0  0  0  0  0
    0.1542    3.0083    0.0000 N   0  0  0  0  0  0  0  0  0  0  0  0
    2.9167    2.2583    0.0000 C   0  0  0  0  0  0  0  0  0  0  0  0
    5.1167    2.0208    0.0000 C   0  0  0  0  0  0  0  0  0  0  0  0
   -6.7667    4.8542    0.0000 C   0  0  0  0  0  0  0  0  0  0  0  0
   -0.4333    3.5875    0.0000 C   0  0  0  0  0  0  0  0  0  0  0  0
    7.8750    1.4750    0.0000 C   0  0  0  0  0  0  0  0  0  0  0  0
    7.9625    2.8958    0.0000 N   0  0  0  0  0  0  0  0  0  0  0  0
    6.3167    2.8000    0.0000 N   0  0  0  0  0  0  0  0  0  0  0  0
    8.1542   -0.6917    0.0000 C   0  0  0  0  0  0  0  0  0  0  0  0
   -2.6208    3.7458    0.0000 C   0  0  0  0  0  0  0  0  0  0  0  0
    7.7000   -1.3792    0.0000 N   0  0  0  0  0  0  0  0  0  0  0  0
    8.3292    2.1625    0.0000 C   0  0  0  0  0  0  0  0  0  0  0  0
   -4.0000    4.1042    0.0000 N   0  0  0  0  0  0  0  0  0  0  0  0
   -1.8208    3.9583    0.0000 N   0  0  0  0  0  0  0  0  0  0  0  0
    0.9500    3.2208    0.0000 C   0  0  0  0  0  0  0  0  0  0  0  0
    8.0750   -2.1167    0.0000 C   0  0  0  0  0  0  0  0  0  0  0  0
   -1.2333    3.3708    0.0000 C   0  0  0  0  0  0  0  0  0  0  0  0
    6.6917    3.5458    0.0000 N   0  0  0  0  0  0  0  0  0  0  0  0
    8.2500    0.7375    0.0000 N   0  0  0  0  0  0  0  0  0  0  0  0
   -7.3417    5.4375    0.0000 C   0  0  0  0  0  0  0  0  0  0  0  0
   -1.4458    2.5708    0.0000 C   0  0  0  0  0  0  0  0  0  0  0  0
   -7.1417    6.2292    0.0000 C   0  0  0  0  0  0  0  0  0  0  0  0
    7.6167   -2.8125    0.0000 C   0  0  0  0  0  0  0  0  0  0  0  0
   -8.1542    5.2167    0.0000 N   0  0  0  0  0  0  0  0  0  0  0  0
   -3.2083    4.3250    0.0000 C   0  0  0  0  0  0  0  0  0  0  0  0
    7.7917    0.0458    0.0000 C   0  0  0  0  0  0  0  0  0  0  0  0
   -0.8583    1.9875    0.0000 C   0  0  0  0  0  0  0  0  0  0  0  0
   -6.3417    6.4500    0.0000 C   0  0  0  0  0  0  0  0  0  0  0  0
   -8.3667    4.4167    0.0000 C   0  0  0  0  0  0  0  0  0  0  0  0
    3.9292    3.2750    0.0000 O   0  0  0  0  0  0  0  0  0  0  0  0
    5.0417    3.4583    0.0000 O   0  0  0  0  0  0  0  0  0  0  0  0
   -1.9750    6.1375    0.0000 C   0  0  0  0  0  0  0  0  0  0  0  0
    7.8875    4.3167    0.0000 O   0  0  0  0  0  0  0  0  0  0  0  0
   -4.3708    5.4917    0.0000 O   0  0  0  0  0  0  0  0  0  0  0  0
    1.3167    1.8333    0.0000 O   0  0  0  0  0  0  0  0  0  0  0  0
    7.0500    1.5333    0.0000 O   0  0  0  0  0  0  0  0  0  0  0  0
   -6.9667    4.0417    0.0000 O   0  0  0  0  0  0  0  0  0  0  0  0
   -0.2208    4.3792    0.0000 O   0  0  0  0  0  0  0  0  0  0  0  0
    8.9792   -0.7417    0.0000 O   0  0  0  0  0  0  0  0  0  0  0  0
   -2.8333    2.9458    0.0000 O   0  0  0  0  0  0  0  0  0  0  0  0
    6.7875   -2.7625    0.0000 O   0  0  0  0  0  0  0  0  0  0  0  0
   -5.6000    3.6833    0.0000 C   0  0  0  0  0  0  0  0  0  0  0  0
   -6.1292    7.2500    0.0000 O   0  0  0  0  0  0  0  0  0  0  0  0
   -1.0750    1.1875    0.0000 O   0  0  0  0  0  0  0  0  0  0  0  0
   -9.1542    4.2042    0.0000 O   0  0  0  0  0  0  0  0  0  0  0  0
   -1.1750    6.3417    0.0000 O   0  0  0  0  0  0  0  0  0  0  0  0
   -2.9833    5.1250    0.0000 C   0  0  0  0  0  0  0  0  0  0  0  0
    2.7042    1.4625    0.0000 C   0  0  0  0  0  0  0  0  0  0  0  0
    4.1750    1.0750    0.0000 C   0  0  0  0  0  0  0  0  0  0  0  0
    1.1667    4.0125    0.0000 C   0  0  0  0  0  0  0  0  0  0  0  0
   -2.1875    5.3417    0.0000 C   0  0  0  0  0  0  0  0  0  0  0  0
    7.9875   -3.5542    0.0000 O   0  0  0  0  0  0  0  0  0  0  0  0
    6.9625    0.0958    0.0000 C   0  0  0  0  0  0  0  0  0  0  0  0
   -0.0583    2.2083    0.0000 O   0  0  0  0  0  0  0  0  0  0  0  0
   -5.7583    5.8667    0.0000 O   0  0  0  0  0  0  0  0  0  0  0  0
   -2.5583    6.7167    0.0000 O   0  0  0  0  0  0  0  0  0  0  0  0
    5.6792   -0.5417    0.0000 S   0  0  0  0  0  0  0  0  0  0  0  0
    9.1542    2.1083    0.0000 C   0  0  0  0  0  0  0  0  0  0  0  0
    8.8917   -2.1667    0.0000 C   0  0  0  0  0  0  0  0  0  0  0  0
    5.4917    1.2833    0.0000 C   0  0  0  0  0  0  0  0  0  0  0  0
   -5.0208    3.1083    0.0000 O   0  0  0  0  0  0  0  0  0  0  0  0
    6.2417    4.2292    0.0000 C   0  0  0  0  0  0  0  0  0  0  0  0
    9.2667   -2.9167    0.0000 O   0  0  0  0  0  0  0  0  0  0  0  0
    9.5292    1.3750    0.0000 O   0  0  0  0  0  0  0  0  0  0  0  0
    4.9042    0.6958    0.0000 C   0  0  0  0  0  0  0  0  0  0  0  0
   -7.7792    3.8458    0.0000 C   0  0  0  0  0  0  0  0  0  0  0  0
    6.5042   -0.5917    0.0000 C   0  0  0  0  0  0  0  0  0  0  0  0
   -6.3917    3.4708    0.0000 C   0  0  0  0  0  0  0  0  0  0  0  0
    5.2250   -1.2292    0.0000 C   0  0  0  0  0  0  0  0  0  0  0  0
    3.2917    0.8833    0.0000 C   0  0  0  0  0  0  0  0  0  0  0  0
    1.9042    1.2500    0.0000 C   0  0  0  0  0  0  0  0  0  0  0  0
    0.5792    4.5917    0.0000 C   0  0  0  0  0  0  0  0  0  0  0  0
    1.9625    4.2292    0.0000 C   0  0  0  0  0  0  0  0  0  0  0  0
    6.6167    4.9625    0.0000 C   0  0  0  0  0  0  0  0  0  0  0  0
    6.1667    5.5417    0.0000 C   0  0  0  0  0  0  0  0  0  0  0  0
  2  1  1  0
 12  3  1  1
  4  6  1  0
  5 27  1  0
  6 22  1  0
  7  9  1  0
  4  8  1  6
 11  9  1  6
 24 10  1  1
 11  2  1  0
 12  1  1  0
 13  8  1  0
 14 10  1  0
 15 21  1  0
 16  5  1  0
 17  3  1  0
 18 35  1  0
 19 23  1  0
 20 18  1  0
 21 16  1  1
 34 22  1  1
 26 23  1  6
 24  7  1  0
 25 20  1  1
 26 14  1  0
 27 17  1  0
 28 15  1  0
 29 13  1  0
 26 30  1  0
 29 31  1  1
 32 25  1  0
 33 29  1  0
 34 19  1  0
 35 28  1  6
 36 30  1  0
 37 31  1  0
 38 33  1  0
 39  2  2  0
 40  3  2  0
 41 60  1  0
 42  5  2  0
 43  6  2  0
 44  7  2  0
 45 15  2  0
 46 13  2  0
 47 14  2  0
 48 18  2  0
 49 19  2  0
 50 32  2  0
  4 51  1  0
 52 37  2  0
 53 36  2  0
 54 38  2  0
 55 41  2  0
 34 56  1  0
 11 57  1  0
 58  1  1  0
 24 59  1  0
 60 56  1  0
 61 32  1  0
 35 62  1  0
 63 36  1  0
 64 37  1  0
 65 41  1  0
 66 76  1  0
 21 67  1  0
 25 68  1  0
 12 69  1  0
 51 70  1  6
 71 27  1  0
 72 68  1  0
 73 67  1  0
 74 58  1  0
 75 38  1  0
 76 62  1  0
 77 51  1  0
 78 66  1  0
 79 57  1  0
 80 57  1  0
 81 59  1  0
 82 59  1  0
 83 71  1  0
 84 83  1  0
 69 74  1  0
M  END

> <chembl_id>
CHEMBL262228

> <chembl_pref_name>
None

$$$$

     RDKit          2D

 11 11  0  0  0  0  0  0  0  0999 V2000
   -1.2208   -9.2708    0.0000 C   0  0  0  0  0  0  0  0  0  0  0  0
   -1.2208  -10.0958    0.0000 C   0  0  0  0  0  0  0  0  0  0  0  0
   -0.5088  -10.5042    0.0000 N   0  0  0  0  0  0  0  0  0  0  0  0
    0.2032  -10.0958    0.0000 C   0  0  0  0  0  0  0  0  0  0  0  0
    0.2032   -9.2708    0.0000 C   0  0  0  0  0  0  0  0  0  0  0  0
   -0.5088   -8.8542    0.0000 C   0  0  0  0  0  0  0  0  0  0  0  0
   -0.5088  -11.3292    0.0000 C   0  0  0  0  0  0  0  0  0  0  0  0
    0.9205   -8.8594    0.0000 C   0  0  0  0  0  0  0  0  0  0  0  0
    1.6338   -9.2740    0.0000 O   0  0  0  0  0  0  0  0  0  0  0  0
    0.9229   -8.0344    0.0000 O   0  0  0  0  0  0  0  0  0  0  0  0
    1.6314  -10.0990    0.0000 C   0  0  0  0  0  0  0  0  0  0  0  0
  4  5  1  0
  5  6  2  0
  3  7  1  0
  1  2  1  0
  1  6  1  0
  2  3  1  0
  8  9  1  0
  8 10  2  0
  5  8  1  0
  3  4  1  0
  9 11  1  0
M  END

> <chembl_id>
CHEMBL7303

> <chembl_pref_name>
ARECOLINE

$$$$

     RDKit          2D

 19 20  0  0  0  0  0  0  0  0999 V2000
    3.3792   -4.0042    0.0000 C   0  0  0  0  0  0  0  0  0  0  0  0
    3.9042   -4.3125    0.0000 N   0  0  0  0  0  0  0  0  0  0  0  0
    2.8667   -4.3125    0.0000 N   0  0  0  0  0  0  0  0  0  0  0  0
    3.3792   -5.2167    0.0000 N   0  0  0  0  0  0  0  0  0  0  0  0
    3.9042   -4.9167    0.0000 C   0  0  0  0  0  0  0  0  0  0  0  0
    2.8667   -4.9167    0.0000 C   0  0  0  0  0  0  0  0  0  0  0  0
    4.4167   -4.0042    0.0000 C   0  0  0  0  0  0  0  0  0  0  0  0
    3.3792   -3.4125    0.0000 N   0  0  0  0  0  0  0  0  0  0  0  0
    5.4542   -3.4042    0.0000 C   0  0  0  0  0  0  0  0  0  0  0  0
    5.9667   -3.1042    0.0000 C   0  0  0  0  0  0  0  0  0  0  0  0
    2.3417   -5.2167    0.0000 N   0  0  0  0  0  0  0  0  0  0  0  0
    4.4125   -3.4125    0.0000 C   0  0  0  0  0  0  0  0  0  0  0  0
    4.9417   -4.3042    0.0000 C   0  0  0  0  0  0  0  0  0  0  0  0
    5.9667   -2.5042    0.0000 O   0  0  0  0  0  0  0  0  0  0  0  0
    4.9292   -3.1042    0.0000 C   0  0  0  0  0  0  0  0  0  0  0  0
    5.4542   -4.0042    0.0000 C   0  0  0  0  0  0  0  0  0  0  0  0
    4.5042   -4.9167    0.0000 C   0  0  0  0  0  0  0  0  0  0  0  0
    4.0542   -5.4917    0.0000 C   0  0  0  0  0  0  0  0  0  0  0  0
    6.4917   -3.4000    0.0000 C   0  0  0  0  0  0  0  0  0  0  0  0
  2  1  1  0
  3  1  2  0
  4  6  2  0
  5  2  1  0
  6  3  1  0
  7  2  1  0
  8  1  1  0
  9 16  2  0
 10  9  1  0
 11  6  1  0
 12  7  1  0
 13  7  2  0
 14 10  2  0
 15 12  2  0
 16 13  1  0
 17  5  1  0
 18  5  1  0
 19 10  1  0
  4  5  1  0
 15  9  1  0
M  END

> <chembl_id>
CHEMBL269018

> <chembl_pref_name>
None

$$$$

     RDKit          2D

 21 22  0  0  0  0  0  0  0  0999 V2000
    2.9538   -0.7569    0.0000 O   0  0  0  0  0  0  0  0  0  0  0  0
    2.2393    0.4806    0.0000 O   0  0  0  0  0  0  0  0  0  0  0  0
    5.8116    0.0681    0.0000 N   0  0  0  0  0  0  0  0  0  0  0  0
    7.2406    0.0681    0.0000 N   0  0  0  0  0  0  0  0  0  0  0  0
    6.5261   -1.1694    0.0000 N   0  0  0  0  0  0  0  0  0  0  0  0
    5.0972   -1.1694    0.0000 N   0  0  0  0  0  0  0  0  0  0  0  0
    7.9551   -1.1694    0.0000 N   0  0  0  0  0  0  0  0  0  0  0  0
    6.5261    0.4806    0.0000 C   0  0  0  0  0  0  0  0  0  0  0  0
    5.0972    0.4806    0.0000 C   0  0  0  0  0  0  0  0  0  0  0  0
    5.8116   -0.7569    0.0000 C   0  0  0  0  0  0  0  0  0  0  0  0
    7.2406   -0.7569    0.0000 C   0  0  0  0  0  0  0  0  0  0  0  0
    4.3827    0.0681    0.0000 C   0  0  0  0  0  0  0  0  0  0  0  0
    3.6682    0.4806    0.0000 C   0  0  0  0  0  0  0  0  0  0  0  0
    5.0972    1.3056    0.0000 C   0  0  0  0  0  0  0  0  0  0  0  0
    6.1388    1.2091    0.0000 C   0  0  0  0  0  0  0  0  0  0  0  0
    6.9134    1.2091    0.0000 C   0  0  0  0  0  0  0  0  0  0  0  0
    3.6682    1.3056    0.0000 C   0  0  0  0  0  0  0  0  0  0  0  0
    4.3827    1.7181    0.0000 C   0  0  0  0  0  0  0  0  0  0  0  0
    2.9538    0.0681    0.0000 C   0  0  0  0  0  0  0  0  0  0  0  0
    2.2393   -1.1694    0.0000 C   0  0  0  0  0  0  0  0  0  0  0  0
    2.2393   -1.9944    0.0000 C   0  0  0  0  0  0  0  0  0  0  0  0
  1 19  1  0
  1 20  1  0
  2 19  2  0
  3  8  1  0
  3  9  1  0
  3 10  1  0
  4  8  1  0
  4 11  2  0
  5 10  2  0
  5 11  1  0
  6 10  1  0
  7 11  1  0
  8 15  1  0
  8 16  1  0
  9 12  2  0
  9 14  1  0
 12 13  1  0
 13 17  2  0
 13 19  1  0
 14 18  2  0
 17 18  1  0
 20 21  1  0
M  END

> <chembl_id>
CHEMBL268356

> <chembl_pref_name>
None

$$$$

     RDKit          2D

 17 19  0  0  0  0  0  0  0  0999 V2000
    7.3500   -6.8292    0.0000 C   0  0  0  0  0  0  0  0  0  0  0  0
    6.5875   -7.2750    0.0000 N   0  0  0  0  0  0  0  0  0  0  0  0
    7.3417   -5.9417    0.0000 C   0  0  0  0  0  0  0  0  0  0  0  0
    6.5792   -5.5042    0.0000 N   0  0  0  0  0  0  0  0  0  0  0  0
    8.1167   -7.2667    0.0000 N   0  0  0  0  0  0  0  0  0  0  0  0
    5.8167   -6.8292    0.0000 C   0  0  0  0  0  0  0  0  0  0  0  0
    5.8167   -5.9500    0.0000 C   0  0  0  0  0  0  0  0  0  0  0  0
    8.1042   -5.4917    0.0000 O   0  0  0  0  0  0  0  0  0  0  0  0
    9.6417   -8.1417    0.0000 N   0  0  0  0  0  0  0  0  0  0  0  0
    8.8750   -6.8167    0.0000 C   0  0  0  0  0  0  0  0  0  0  0  0
    8.1167   -8.1500    0.0000 C   0  0  0  0  0  0  0  0  0  0  0  0
    5.0542   -7.2792    0.0000 C   0  0  0  0  0  0  0  0  0  0  0  0
    8.8792   -8.5875    0.0000 C   0  0  0  0  0  0  0  0  0  0  0  0
    9.6417   -7.2625    0.0000 C   0  0  0  0  0  0  0  0  0  0  0  0
    5.0542   -5.5042    0.0000 C   0  0  0  0  0  0  0  0  0  0  0  0
    4.2917   -6.8375    0.0000 C   0  0  0  0  0  0  0  0  0  0  0  0
    4.2917   -5.9500    0.0000 C   0  0  0  0  0  0  0  0  0  0  0  0
  2  1  2  0
  3  1  1  0
  4  3  2  0
  5  1  1  0
  6  2  1  0
  7  4  1  0
  8  3  1  0
  9 13  1  0
 10  5  1  0
 11  5  1  0
 12  6  2  0
 13 11  1  0
 14 10  1  0
 15  7  2  0
 16 12  1  0
 17 15  1  0
 14  9  1  0
  6  7  1  0
 16 17  2  0
M  END

> <chembl_id>
CHEMBL7236

> <chembl_pref_name>
None

$$$$

     RDKit          2D

 25 28  0  0  0  0  0  0  0  0999 V2000
   -2.8596   -2.9101    0.0000 N   0  0  0  0  0  0  0  0  0  0  0  0
   -2.1451   -2.4976    0.0000 C   0  0  0  0  0  0  0  0  0  0  0  0
   -2.1451   -1.6726    0.0000 N   0  0  0  0  0  0  0  0  0  0  0  0
   -1.4307   -1.2601    0.0000 C   0  0  0  0  0  0  0  0  0  0  0  0
   -1.4307   -0.4351    0.0000 N   0  0  0  0  0  0  0  0  0  0  0  0
   -0.7162   -1.6726    0.0000 C   0  0  0  0  0  0  0  0  0  0  0  0
   -0.0017   -1.2601    0.0000 C   0  0  0  0  0  0  0  0  0  0  0  0
    0.7127   -1.6726    0.0000 C   0  0  0  0  0  0  0  0  0  0  0  0
    0.7127   -2.4976    0.0000 C   0  0  0  0  0  0  0  0  0  0  0  0
   -0.0017   -2.9101    0.0000 C   0  0  0  0  0  0  0  0  0  0  0  0
   -0.7162   -2.4976    0.0000 C   0  0  0  0  0  0  0  0  0  0  0  0
   -1.4307   -2.9101    0.0000 N   0  0  0  0  0  0  0  0  0  0  0  0
    1.4272   -1.2601    0.0000 S   0  0  0  0  0  0  0  0  0  0  0  0
    1.8397   -1.9746    0.0000 O   0  0  0  0  0  0  0  0  0  0  0  0
    1.0147   -0.5456    0.0000 O   0  0  0  0  0  0  0  0  0  0  0  0
    2.1417   -0.8476    0.0000 C   0  0  0  0  0  0  0  0  0  0  0  0
    2.1417   -0.0226    0.0000 C   0  0  0  0  0  0  0  0  0  0  0  0
    2.8561    0.3899    0.0000 C   0  0  0  0  0  0  0  0  0  0  0  0
    3.5706   -0.0226    0.0000 C   0  0  0  0  0  0  0  0  0  0  0  0
    4.2851    0.3899    0.0000 C   0  0  0  0  0  0  0  0  0  0  0  0
    4.9996   -0.0226    0.0000 C   0  0  0  0  0  0  0  0  0  0  0  0
    4.9996   -0.8476    0.0000 C   0  0  0  0  0  0  0  0  0  0  0  0
    4.2851   -1.2601    0.0000 C   0  0  0  0  0  0  0  0  0  0  0  0
    3.5706   -0.8476    0.0000 C   0  0  0  0  0  0  0  0  0  0  0  0
    2.8561   -1.2601    0.0000 C   0  0  0  0  0  0  0  0  0  0  0  0
  1  2  1  0
  2  3  2  0
  3  4  1  0
  4  5  1  0
  4  6  2  0
  6  7  1  0
  7  8  2  0
  8  9  1  0
  9 10  2  0
 10 11  1  0
 11  6  1  0
 11 12  2  0
 12  2  1  0
  8 13  1  0
 13 14  2  0
 13 15  2  0
 13 16  1  0
 16 17  2  0
 17 18  1  0
 18 19  2  0
 19 20  1  0
 20 21  2  0
 21 22  1  0
 22 23  2  0
 23 24  1  0
 24 19  1  0
 24 25  2  0
 25 16  1  0
M  END

> <chembl_id>
CHEMBL268584

> <chembl_pref_name>
None

$$$$

     RDKit          2D

 27 28  0  0  1  0  0  0  0  0999 V2000
    0.7167   -1.6917    0.0000 N   0  0  0  0  0  0  0  0  0  0  0  0
    5.0417   -1.6917    0.0000 S   0  0  0  0  0  0  0  0  0  0  0  0
    0.5542   -2.5000    0.0000 C   0  0  0  0  0  0  0  0  0  0  0  0
   -0.2250   -2.7667    0.0000 C   0  0  0  0  0  0  0  0  0  0  0  0
    1.4667   -1.3417    0.0000 C   0  0  0  0  0  0  0  0  0  0  0  0
    2.1875   -1.7417    0.0000 C   0  0  0  0  0  0  0  0  0  0  0  0
    4.3250   -1.2917    0.0000 C   0  0  0  0  0  0  0  0  0  0  0  0
    5.0417   -2.5167    0.0000 O   0  0  0  0  0  0  0  0  0  0  0  0
    5.0417   -0.8667    0.0000 O   0  0  0  0  0  0  0  0  0  0  0  0
    5.7500   -1.2667    0.0000 C   0  0  0  0  0  0  0  0  0  0  0  0
    1.1750   -3.0417    0.0000 O   0  0  0  0  0  0  0  0  0  0  0  0
   -0.3875   -3.5750    0.0000 C   0  0  0  0  0  0  0  0  0  0  0  0
   -0.8458   -2.2250    0.0000 O   0  0  0  0  0  0  0  0  0  0  0  0
    2.1917   -2.5667    0.0000 O   0  0  0  0  0  0  0  0  0  0  0  0
    0.1542   -1.0792    0.0000 C   0  0  0  0  0  0  0  0  0  0  0  0
    2.8917   -1.3167    0.0000 O   0  0  0  0  0  0  0  0  0  0  0  0
    3.6167   -1.7167    0.0000 C   0  0  0  0  0  0  0  0  0  0  0  0
    1.3625   -0.5250    0.0000 C   0  0  0  0  0  0  0  0  0  0  0  0
    0.5542   -0.3625    0.0000 C   0  0  0  0  0  0  0  0  0  0  0  0
   -1.1708   -3.8417    0.0000 C   0  0  0  0  0  0  0  0  0  0  0  0
    5.7292   -0.4417    0.0000 C   0  0  0  0  0  0  0  0  0  0  0  0
    6.4667   -1.6667    0.0000 C   0  0  0  0  0  0  0  0  0  0  0  0
   -1.3250   -4.6500    0.0000 C   0  0  0  0  0  0  0  0  0  0  0  0
   -1.7875   -3.3000    0.0000 C   0  0  0  0  0  0  0  0  0  0  0  0
    7.1750   -1.2417    0.0000 C   0  0  0  0  0  0  0  0  0  0  0  0
    6.4375   -0.0167    0.0000 C   0  0  0  0  0  0  0  0  0  0  0  0
    7.1625   -0.4167    0.0000 C   0  0  0  0  0  0  0  0  0  0  0  0
  2  7  1  0
  3  1  1  0
  4  3  1  0
  5  1  1  0
  5  6  1  1
  7 17  1  0
  8  2  2  0
  9  2  2  0
 10  2  1  0
 11  3  2  0
 12  4  1  0
 13  4  2  0
 14  6  2  0
 15  1  1  0
 16  6  1  0
 17 16  1  0
 18  5  1  0
 19 15  1  0
 20 12  1  0
 21 10  1  0
 22 10  2  0
 23 20  1  0
 24 20  1  0
 25 22  1  0
 26 21  2  0
 27 25  2  0
 19 18  1  0
 26 27  1  0
M  END

> <chembl_id>
CHEMBL266660

> <chembl_pref_name>
None

$$$$

     RDKit          2D

 25 26  0  0  1  0  0  0  0  0999 V2000
    0.7167   -1.6917    0.0000 N   0  0  0  0  0  0  0  0  0  0  0  0
    0.5542   -2.5000    0.0000 C   0  0  0  0  0  0  0  0  0  0  0  0
   -0.2250   -2.7667    0.0000 C   0  0  0  0  0  0  0  0  0  0  0  0
    1.4667   -1.3417    0.0000 C   0  0  0  0  0  0  0  0  0  0  0  0
    2.1875   -1.7417    0.0000 C   0  0  0  0  0  0  0  0  0  0  0  0
   -0.3875   -3.5750    0.0000 C   0  0  0  0  0  0  0  0  0  0  0  0
    1.1750   -3.0417    0.0000 O   0  0  0  0  0  0  0  0  0  0  0  0
   -0.8458   -2.2250    0.0000 O   0  0  0  0  0  0  0  0  0  0  0  0
    2.1917   -2.5667    0.0000 O   0  0  0  0  0  0  0  0  0  0  0  0
    7.1750   -1.2417    0.0000 N   0  0  0  0  0  0  0  0  0  0  0  0
    0.1542   -1.0792    0.0000 C   0  0  0  0  0  0  0  0  0  0  0  0
    2.8917   -1.3167    0.0000 O   0  0  0  0  0  0  0  0  0  0  0  0
    1.3625   -0.5250    0.0000 C   0  0  0  0  0  0  0  0  0  0  0  0
    5.7500   -1.2667    0.0000 C   0  0  0  0  0  0  0  0  0  0  0  0
    0.5542   -0.3625    0.0000 C   0  0  0  0  0  0  0  0  0  0  0  0
    6.4667   -1.6667    0.0000 C   0  0  0  0  0  0  0  0  0  0  0  0
   -1.1708   -3.8417    0.0000 C   0  0  0  0  0  0  0  0  0  0  0  0
    0.2292   -4.1167    0.0000 C   0  0  0  0  0  0  0  0  0  0  0  0
   -0.3958   -4.4000    0.0000 C   0  0  0  0  0  0  0  0  0  0  0  0
    7.1625   -0.4167    0.0000 C   0  0  0  0  0  0  0  0  0  0  0  0
    3.6167   -1.7167    0.0000 C   0  0  0  0  0  0  0  0  0  0  0  0
    5.0417   -1.6917    0.0000 C   0  0  0  0  0  0  0  0  0  0  0  0
    5.7292   -0.4417    0.0000 C   0  0  0  0  0  0  0  0  0  0  0  0
    4.3250   -1.2917    0.0000 C   0  0  0  0  0  0  0  0  0  0  0  0
    6.4375   -0.0167    0.0000 C   0  0  0  0  0  0  0  0  0  0  0  0
  2  1  1  0
  3  2  1  0
  4  1  1  0
  4  5  1  1
  6  3  1  0
  7  2  2  0
  8  3  2  0
  9  5  2  0
 10 16  1  0
 11  1  1  0
 12  5  1  0
 13  4  1  0
 14 22  1  0
 15 11  1  0
 16 14  2  0
 17  6  1  0
 18  6  1  0
 19  6  1  0
 20 25  1  0
 21 12  1  0
 22 24  1  0
 23 14  1  0
 24 21  1  0
 25 23  2  0
 15 13  1  0
 10 20  2  0
M  END

> <chembl_id>
CHEMBL6449

> <chembl_pref_name>
None

$$$$

     RDKit          2D

 22 24  0  0  0  0  0  0  0  0999 V2000
    1.8417   -1.2042    0.0000 C   0  0  0  0  0  0  0  0  0  0  0  0
    2.5542   -1.6167    0.0000 C   0  0  0  0  0  0  0  0  0  0  0  0
    2.5542   -2.4417    0.0000 C   0  0  0  0  0  0  0  0  0  0  0  0
    3.9875   -2.4417    0.0000 C   0  0  0  0  0  0  0  0  0  0  0  0
    1.8417   -0.3792    0.0000 C   0  0  0  0  0  0  0  0  0  0  0  0
    3.9875   -1.6167    0.0000 C   0  0  0  0  0  0  0  0  0  0  0  0
    1.8417   -2.8542    0.0000 O   0  0  0  0  0  0  0  0  0  0  0  0
    4.7000   -2.8542    0.0000 N   0  0  0  0  0  0  0  0  0  0  0  0
    1.1292   -2.4417    0.0000 C   0  0  0  0  0  0  0  0  0  0  0  0
    1.1292   -1.6167    0.0000 C   0  0  0  0  0  0  0  0  0  0  0  0
    3.2667   -2.8542    0.0000 C   0  0  0  0  0  0  0  0  0  0  0  0
    3.2667   -1.2042    0.0000 C   0  0  0  0  0  0  0  0  0  0  0  0
    4.7000   -1.2042    0.0000 C   0  0  0  0  0  0  0  0  0  0  0  0
    5.4167   -2.4417    0.0000 C   0  0  0  0  0  0  0  0  0  0  0  0
    5.4167   -1.6167    0.0000 C   0  0  0  0  0  0  0  0  0  0  0  0
    0.4042   -2.8667    0.0000 O   0  0  0  0  0  0  0  0  0  0  0  0
    1.8417    0.4458    0.0000 F   0  0  0  0  0  0  0  0  0  0  0  0
    2.6667   -0.3792    0.0000 F   0  0  0  0  0  0  0  0  0  0  0  0
    1.0167   -0.3792    0.0000 F   0  0  0  0  0  0  0  0  0  0  0  0
    4.7000   -0.3792    0.0000 C   0  0  0  0  0  0  0  0  0  0  0  0
    6.2417   -2.4417    0.0000 C   0  0  0  0  0  0  0  0  0  0  0  0
    6.6542   -3.1542    0.0000 C   0  0  0  0  0  0  0  0  0  0  0  0
  2  1  1  0
  3  2  2  0
  4  6  1  0
  5  1  1  0
  6 12  2  0
  7  9  1  0
  8  4  1  0
  9 10  1  0
 10  1  2  0
 11  3  1  0
 12  2  1  0
 13  6  1  0
 14 15  1  0
 15 13  1  0
 16  9  2  0
 17  5  1  0
 18  5  1  0
 19  5  1  0
 20 13  1  0
 21 14  1  0
 22 21  1  0
  3  7  1  0
 11  4  2  0
  8 14  1  0
M  END

> <chembl_id>
CHEMBL269305

> <chembl_pref_name>
None

$$$$

     RDKit          2D

 20 22  0  0  0  0  0  0  0  0999 V2000
    4.2667   -3.0667    0.0000 C   0  0  0  0  0  0  0  0  0  0  0  0
    4.9750   -3.4875    0.0000 C   0  0  0  0  0  0  0  0  0  0  0  0
    4.9667   -4.3167    0.0000 C   0  0  0  0  0  0  0  0  0  0  0  0
    4.2667   -2.2417    0.0000 C   0  0  0  0  0  0  0  0  0  0  0  0
    4.2542   -4.7167    0.0000 O   0  0  0  0  0  0  0  0  0  0  0  0
    3.5375   -4.3042    0.0000 C   0  0  0  0  0  0  0  0  0  0  0  0
    3.5417   -3.4792    0.0000 C   0  0  0  0  0  0  0  0  0  0  0  0
    6.4000   -4.3167    0.0000 C   0  0  0  0  0  0  0  0  0  0  0  0
    6.4042   -3.5000    0.0000 C   0  0  0  0  0  0  0  0  0  0  0  0
    5.6917   -3.0792    0.0000 C   0  0  0  0  0  0  0  0  0  0  0  0
    5.6792   -4.7292    0.0000 C   0  0  0  0  0  0  0  0  0  0  0  0
    7.1042   -4.7417    0.0000 N   0  0  0  0  0  0  0  0  0  0  0  0
    2.8167   -4.7250    0.0000 O   0  0  0  0  0  0  0  0  0  0  0  0
    7.1167   -3.0917    0.0000 C   0  0  0  0  0  0  0  0  0  0  0  0
    4.2792   -1.4250    0.0000 F   0  0  0  0  0  0  0  0  0  0  0  0
    5.0917   -2.2542    0.0000 F   0  0  0  0  0  0  0  0  0  0  0  0
    3.4417   -2.2417    0.0000 F   0  0  0  0  0  0  0  0  0  0  0  0
    7.8292   -4.3292    0.0000 C   0  0  0  0  0  0  0  0  0  0  0  0
    7.8292   -3.5042    0.0000 C   0  0  0  0  0  0  0  0  0  0  0  0
    7.1250   -2.2667    0.0000 C   0  0  0  0  0  0  0  0  0  0  0  0
  2  1  1  0
  3  2  2  0
  4  1  1  0
  5  6  1  0
  6  7  1  0
  7  1  2  0
  8  9  1  0
  9 10  2  0
 10  2  1  0
 11  3  1  0
 12  8  1  0
 13  6  2  0
 14  9  1  0
 15  4  1  0
 16  4  1  0
 17  4  1  0
 18 19  1  0
 19 14  1  0
 20 14  1  0
  5  3  1  0
 11  8  2  0
 12 18  1  0
M  END

> <chembl_id>
CHEMBL415289

> <chembl_pref_name>
None

$$$$

     RDKit          2D

 23 25  0  0  0  0  0  0  0  0999 V2000
    4.3875   -1.3542    0.0000 C   0  0  0  0  0  0  0  0  0  0  0  0
    4.9167   -0.7292    0.0000 C   0  0  0  0  0  0  0  0  0  0  0  0
    3.6167   -1.0375    0.0000 N   0  0  0  0  0  0  0  0  0  0  0  0
    4.4917   -0.0292    0.0000 N   0  0  0  0  0  0  0  0  0  0  0  0
    3.3000   -2.8625    0.0000 C   0  0  0  0  0  0  0  0  0  0  0  0
    2.7542   -2.2500    0.0000 C   0  0  0  0  0  0  0  0  0  0  0  0
    4.1125   -2.8125    0.0000 N   0  0  0  0  0  0  0  0  0  0  0  0
    3.6875   -0.2167    0.0000 C   0  0  0  0  0  0  0  0  0  0  0  0
    2.9000   -1.4292    0.0000 C   0  0  0  0  0  0  0  0  0  0  0  0
    5.7417   -0.7792    0.0000 C   0  0  0  0  0  0  0  0  0  0  0  0
    4.5917   -2.1417    0.0000 C   0  0  0  0  0  0  0  0  0  0  0  0
    6.1125   -1.5250    0.0000 O   0  0  0  0  0  0  0  0  0  0  0  0
    2.9875   -3.6292    0.0000 O   0  0  0  0  0  0  0  0  0  0  0  0
    6.2042   -0.0917    0.0000 O   0  0  0  0  0  0  0  0  0  0  0  0
    6.9292   -1.5750    0.0000 C   0  0  0  0  0  0  0  0  0  0  0  0
    1.9792   -2.5375    0.0000 C   0  0  0  0  0  0  0  0  0  0  0  0
    4.5042   -3.5417    0.0000 C   0  0  0  0  0  0  0  0  0  0  0  0
    2.2542   -0.9042    0.0000 C   0  0  0  0  0  0  0  0  0  0  0  0
    7.3000   -2.3167    0.0000 C   0  0  0  0  0  0  0  0  0  0  0  0
    7.3917   -0.8875    0.0000 C   0  0  0  0  0  0  0  0  0  0  0  0
    7.7542   -1.5750    0.0000 C   0  0  0  0  0  0  0  0  0  0  0  0
    1.3417   -2.0125    0.0000 C   0  0  0  0  0  0  0  0  0  0  0  0
    1.4792   -1.1917    0.0000 C   0  0  0  0  0  0  0  0  0  0  0  0
  2  1  2  0
  3  1  1  0
  4  2  1  0
  5  7  1  0
  6  9  2  0
  7 11  1  0
  8  3  1  0
  9  3  1  0
 10  2  1  0
 11  1  1  0
 12 10  1  0
 13  5  2  0
 14 10  2  0
 15 12  1  0
 16  6  1  0
 17  7  1  0
 18  9  1  0
 19 15  1  0
 20 15  1  0
 21 15  1  0
 22 23  1  0
 23 18  2  0
  4  8  2  0
  6  5  1  0
 22 16  2  0
M  END

> <chembl_id>
CHEMBL7298

> <chembl_pref_name>
None

$$$$

     RDKit          2D

 20 21  0  0  0  0  0  0  0  0999 V2000
    3.3792   -4.0042    0.0000 C   0  0  0  0  0  0  0  0  0  0  0  0
    3.9042   -4.3125    0.0000 N   0  0  0  0  0  0  0  0  0  0  0  0
    2.8667   -4.3125    0.0000 N   0  0  0  0  0  0  0  0  0  0  0  0
    3.3792   -5.2167    0.0000 N   0  0  0  0  0  0  0  0  0  0  0  0
    3.9042   -4.9167    0.0000 C   0  0  0  0  0  0  0  0  0  0  0  0
    2.8667   -4.9167    0.0000 C   0  0  0  0  0  0  0  0  0  0  0  0
    5.9667   -3.1000    0.0000 C   0  0  0  0  0  0  0  0  0  0  0  0
    4.4167   -4.0042    0.0000 C   0  0  0  0  0  0  0  0  0  0  0  0
    5.4542   -3.4042    0.0000 C   0  0  0  0  0  0  0  0  0  0  0  0
    3.3792   -3.4125    0.0000 N   0  0  0  0  0  0  0  0  0  0  0  0
    2.3417   -5.2167    0.0000 N   0  0  0  0  0  0  0  0  0  0  0  0
    4.4125   -3.4125    0.0000 C   0  0  0  0  0  0  0  0  0  0  0  0
    4.9417   -4.3042    0.0000 C   0  0  0  0  0  0  0  0  0  0  0  0
    5.4542   -4.0042    0.0000 C   0  0  0  0  0  0  0  0  0  0  0  0
    4.9292   -3.1042    0.0000 C   0  0  0  0  0  0  0  0  0  0  0  0
    6.4417   -2.8250    0.0000 F   0  0  0  0  0  0  0  0  0  0  0  0
    6.5542   -3.3167    0.0000 F   0  0  0  0  0  0  0  0  0  0  0  0
    6.0667   -2.4792    0.0000 F   0  0  0  0  0  0  0  0  0  0  0  0
    4.5042   -4.9167    0.0000 C   0  0  0  0  0  0  0  0  0  0  0  0
    4.0542   -5.4917    0.0000 C   0  0  0  0  0  0  0  0  0  0  0  0
  2  1  1  0
  3  1  2  0
  4  6  2  0
  5  2  1  0
  6  3  1  0
  7  9  1  0
  8  2  1  0
  9 14  2  0
 10  1  1  0
 11  6  1  0
 12  8  1  0
 13  8  2  0
 14 13  1  0
 15 12  2  0
 16  7  1  0
 17  7  1  0
 18  7  1  0
 19  5  1  0
 20  5  1  0
  5  4  1  0
 15  9  1  0
M  END

> <chembl_id>
CHEMBL427826

> <chembl_pref_name>
None

$$$$

     RDKit          2D

 32 35  0  0  0  0  0  0  0  0999 V2000
    8.5542   -3.6917    0.0000 C   0  0  0  0  0  0  0  0  0  0  0  0
    9.0625   -3.3667    0.0000 N   0  0  0  0  0  0  0  0  0  0  0  0
    8.0917   -3.3167    0.0000 N   0  0  0  0  0  0  0  0  0  0  0  0
    2.8417   -3.3292    0.0000 N   0  0  0  0  0  0  0  0  0  0  0  0
    2.4917   -3.8167    0.0000 C   0  0  0  0  0  0  0  0  0  0  0  0
    8.9125   -2.7875    0.0000 C   0  0  0  0  0  0  0  0  0  0  0  0
    3.4167   -3.5167    0.0000 C   0  0  0  0  0  0  0  0  0  0  0  0
    2.8417   -4.3000    0.0000 O   0  0  0  0  0  0  0  0  0  0  0  0
    8.3125   -2.7542    0.0000 O   0  0  0  0  0  0  0  0  0  0  0  0
    3.4167   -4.1167    0.0000 C   0  0  0  0  0  0  0  0  0  0  0  0
    7.0917   -3.0417    0.0000 C   0  0  0  0  0  0  0  0  0  0  0  0
    1.8917   -3.8167    0.0000 C   0  0  0  0  0  0  0  0  0  0  0  0
    8.5250   -4.2917    0.0000 O   0  0  0  0  0  0  0  0  0  0  0  0
    7.5167   -3.4667    0.0000 C   0  0  0  0  0  0  0  0  0  0  0  0
    6.5125   -3.1917    0.0000 C   0  0  0  0  0  0  0  0  0  0  0  0
    3.9000   -3.1625    0.0000 C   0  0  0  0  0  0  0  0  0  0  0  0
    9.2917   -2.3250    0.0000 O   0  0  0  0  0  0  0  0  0  0  0  0
    1.5875   -4.3375    0.0000 C   0  0  0  0  0  0  0  0  0  0  0  0
    1.5917   -3.2917    0.0000 C   0  0  0  0  0  0  0  0  0  0  0  0
    4.4500   -3.4042    0.0000 O   0  0  0  0  0  0  0  0  0  0  0  0
    5.9667   -2.9417    0.0000 C   0  0  0  0  0  0  0  0  0  0  0  0
    0.6875   -3.8167    0.0000 C   0  0  0  0  0  0  0  0  0  0  0  0
    4.9292   -3.0542    0.0000 C   0  0  0  0  0  0  0  0  0  0  0  0
    5.4792   -3.3000    0.0000 C   0  0  0  0  0  0  0  0  0  0  0  0
    0.9875   -4.3375    0.0000 C   0  0  0  0  0  0  0  0  0  0  0  0
    0.9917   -3.2917    0.0000 C   0  0  0  0  0  0  0  0  0  0  0  0
    0.0875   -3.8125    0.0000 Cl  0  0  0  0  0  0  0  0  0  0  0  0
    3.9000   -4.4667    0.0000 C   0  0  0  0  0  0  0  0  0  0  0  0
    5.3542   -2.1042    0.0000 C   0  0  0  0  0  0  0  0  0  0  0  0
    5.9042   -2.3500    0.0000 C   0  0  0  0  0  0  0  0  0  0  0  0
    4.8667   -2.4542    0.0000 C   0  0  0  0  0  0  0  0  0  0  0  0
    7.3542   -4.0417    0.0000 C   0  0  0  0  0  0  0  0  0  0  0  0
  2  1  1  0
  3  1  1  0
  4  7  1  0
  5  4  2  0
  6  2  1  0
  7 16  1  0
  8 10  1  0
  9  3  1  0
 10  7  2  0
 11 14  1  0
 12  5  1  0
 13  1  2  0
 14  3  1  0
 15 11  2  0
 16 20  1  0
 17  6  2  0
 18 12  1  0
 19 12  2  0
 20 23  1  0
 21 15  1  0
 22 26  2  0
 23 24  2  0
 24 21  1  0
 25 18  2  0
 26 19  1  0
 27 22  1  0
 28 10  1  0
 29 30  1  0
 30 21  2  0
 31 29  2  0
 32 14  1  0
  9  6  1  0
 23 31  1  0
  8  5  1  0
 22 25  1  0
M  END

> <chembl_id>
CHEMBL414010

> <chembl_pref_name>
None

$$$$

     RDKit          2D

 13 13  0  0  0  0  0  0  0  0999 V2000
    1.0417   -5.0500    0.0000 Cl  0  0  0  0  0  0  0  0  0  0  0  0
   -1.3333   -3.0250    0.0000 C   0  0  0  0  0  0  0  0  0  0  0  0
   -0.5125   -3.5417    0.0000 N   0  0  0  0  0  0  0  0  0  0  0  0
   -0.7333   -2.9875    0.0000 C   0  0  0  0  0  0  0  0  0  0  0  0
   -1.4833   -3.6042    0.0000 C   0  0  0  0  0  0  0  0  0  0  0  0
   -2.3375   -2.7542    0.0000 N   0  0  0  0  0  0  0  0  0  0  0  0
   -0.9750   -3.9292    0.0000 O   0  0  0  0  0  0  0  0  0  0  0  0
   -1.7583   -2.6000    0.0000 C   0  0  0  0  0  0  0  0  0  0  0  0
   -2.0625   -3.7625    0.0000 C   0  0  0  0  0  0  0  0  0  0  0  0
   -2.4958   -3.3417    0.0000 C   0  0  0  0  0  0  0  0  0  0  0  0
   -0.4375   -2.4667    0.0000 O   0  0  0  0  0  0  0  0  0  0  0  0
   -2.3458   -2.1542    0.0000 C   0  0  0  0  0  0  0  0  0  0  0  0
    0.1625   -2.4542    0.0000 C   0  0  0  0  0  0  0  0  0  0  0  0
  3  4  2  0
  4  2  1  0
  5  2  2  0
  6  8  1  0
  7  5  1  0
  8  2  1  0
  9  5  1  0
 10  6  1  0
 11  4  1  0
 12  6  1  0
 13 11  1  0
  3  7  1  0
 10  9  1  0
M  END

> <chembl_id>
CHEMBL440085

> <chembl_pref_name>
None

$$$$

     RDKit          2D

 15 15  0  0  0  0  0  0  0  0999 V2000
    1.0417   -5.0500    0.0000 Cl  0  0  0  0  0  0  0  0  0  0  0  0
   -1.3333   -3.0250    0.0000 C   0  0  0  0  0  0  0  0  0  0  0  0
   -0.5125   -3.5417    0.0000 N   0  0  0  0  0  0  0  0  0  0  0  0
   -0.7333   -2.9875    0.0000 C   0  0  0  0  0  0  0  0  0  0  0  0
   -1.4833   -3.6042    0.0000 C   0  0  0  0  0  0  0  0  0  0  0  0
   -0.9750   -3.9292    0.0000 O   0  0  0  0  0  0  0  0  0  0  0  0
   -2.3375   -2.7542    0.0000 N   0  0  0  0  0  0  0  0  0  0  0  0
    0.4542   -1.9375    0.0000 C   0  0  0  0  0  0  0  0  0  0  0  0
    0.7500   -1.4167    0.0000 C   0  0  0  0  0  0  0  0  0  0  0  0
   -1.7583   -2.6000    0.0000 C   0  0  0  0  0  0  0  0  0  0  0  0
   -2.0625   -3.7625    0.0000 C   0  0  0  0  0  0  0  0  0  0  0  0
   -0.4375   -2.4667    0.0000 O   0  0  0  0  0  0  0  0  0  0  0  0
   -2.4958   -3.3417    0.0000 C   0  0  0  0  0  0  0  0  0  0  0  0
    0.1625   -2.4542    0.0000 C   0  0  0  0  0  0  0  0  0  0  0  0
    1.0417   -0.8917    0.0000 C   0  0  0  0  0  0  0  0  0  0  0  0
  3  4  2  0
  4  2  1  0
  5  2  2  0
  6  5  1  0
  7 10  1  0
  8 14  1  0
  9  8  3  0
 10  2  1  0
 11  5  1  0
 12  4  1  0
 13  7  1  0
 14 12  1  0
 15  9  1  0
  3  6  1  0
 13 11  1  0
M  END

> <chembl_id>
CHEMBL7018

> <chembl_pref_name>
None

$$$$

     RDKit          2D

 35 38  0  0  0  0  0  0  0  0999 V2000
    8.6042   -1.9417    0.0000 N   0  0  0  0  0  0  0  0  0  0  0  0
    8.0292   -2.1292    0.0000 C   0  0  0  0  0  0  0  0  0  0  0  0
    2.8417   -3.3292    0.0000 N   0  0  0  0  0  0  0  0  0  0  0  0
    2.4917   -3.8167    0.0000 C   0  0  0  0  0  0  0  0  0  0  0  0
    8.0292   -2.7292    0.0000 N   0  0  0  0  0  0  0  0  0  0  0  0
    8.9542   -2.4292    0.0000 C   0  0  0  0  0  0  0  0  0  0  0  0
    3.4167   -3.5167    0.0000 C   0  0  0  0  0  0  0  0  0  0  0  0
    2.8417   -4.3000    0.0000 O   0  0  0  0  0  0  0  0  0  0  0  0
    8.6042   -2.9167    0.0000 O   0  0  0  0  0  0  0  0  0  0  0  0
    3.4167   -4.1167    0.0000 C   0  0  0  0  0  0  0  0  0  0  0  0
    0.0875   -3.8125    0.0000 C   0  0  0  0  0  0  0  0  0  0  0  0
    7.0000   -2.8417    0.0000 C   0  0  0  0  0  0  0  0  0  0  0  0
    6.5125   -3.1917    0.0000 C   0  0  0  0  0  0  0  0  0  0  0  0
    1.8917   -3.8167    0.0000 C   0  0  0  0  0  0  0  0  0  0  0  0
    7.5417   -3.0792    0.0000 C   0  0  0  0  0  0  0  0  0  0  0  0
    0.6875   -3.8167    0.0000 C   0  0  0  0  0  0  0  0  0  0  0  0
    5.9667   -2.9417    0.0000 C   0  0  0  0  0  0  0  0  0  0  0  0
    7.5417   -1.7792    0.0000 O   0  0  0  0  0  0  0  0  0  0  0  0
    3.9000   -3.1625    0.0000 C   0  0  0  0  0  0  0  0  0  0  0  0
    9.5542   -2.4292    0.0000 O   0  0  0  0  0  0  0  0  0  0  0  0
    5.4792   -3.3000    0.0000 C   0  0  0  0  0  0  0  0  0  0  0  0
    1.5917   -3.2917    0.0000 C   0  0  0  0  0  0  0  0  0  0  0  0
    1.5875   -4.3375    0.0000 C   0  0  0  0  0  0  0  0  0  0  0  0
    0.9917   -3.2917    0.0000 C   0  0  0  0  0  0  0  0  0  0  0  0
    0.9875   -4.3375    0.0000 C   0  0  0  0  0  0  0  0  0  0  0  0
   -0.3833   -3.4667    0.0000 F   0  0  0  0  0  0  0  0  0  0  0  0
   -0.2125   -4.3292    0.0000 F   0  0  0  0  0  0  0  0  0  0  0  0
    0.2500   -3.2292    0.0000 F   0  0  0  0  0  0  0  0  0  0  0  0
    4.4500   -3.4042    0.0000 O   0  0  0  0  0  0  0  0  0  0  0  0
    4.9292   -3.0542    0.0000 C   0  0  0  0  0  0  0  0  0  0  0  0
    3.9000   -4.4667    0.0000 C   0  0  0  0  0  0  0  0  0  0  0  0
    5.9042   -2.3500    0.0000 C   0  0  0  0  0  0  0  0  0  0  0  0
    6.5750   -3.7875    0.0000 C   0  0  0  0  0  0  0  0  0  0  0  0
    5.3542   -2.1042    0.0000 C   0  0  0  0  0  0  0  0  0  0  0  0
    4.8667   -2.4542    0.0000 C   0  0  0  0  0  0  0  0  0  0  0  0
  2  1  1  0
  3  7  1  0
  4  3  2  0
  5  2  1  0
  6  1  1  0
  7 19  1  0
  8 10  1  0
  9  6  1  0
 10  7  2  0
 11 16  1  0
 12 15  1  0
 13 12  2  0
 14  4  1  0
 15  5  1  0
 16 25  1  0
 17 13  1  0
 18  2  2  0
 19 29  1  0
 20  6  2  0
 21 17  1  0
 22 14  2  0
 23 14  1  0
 24 22  1  0
 25 23  2  0
 26 11  1  0
 27 11  1  0
 28 11  1  0
 29 30  1  0
 30 21  2  0
 31 10  1  0
 32 17  2  0
 33 13  1  0
 34 32  1  0
 35 34  2  0
  9  5  1  0
 30 35  1  0
  8  4  1  0
 16 24  2  0
M  END

> <chembl_id>
CHEMBL7029

> <chembl_pref_name>
None

$$$$

     RDKit          2D

 17 18  0  0  0  0  0  0  0  0999 V2000
    0.2522   -0.1342    0.0000 N   0  0  0  0  0  0  0  0  0  0  0  0
    0.2522   -0.9592    0.0000 C   0  0  0  0  0  0  0  0  0  0  0  0
    0.9666   -1.3717    0.0000 N   0  0  0  0  0  0  0  0  0  0  0  0
    0.9666    0.2783    0.0000 C   0  0  0  0  0  0  0  0  0  0  0  0
    1.6811   -0.1342    0.0000 N   0  0  0  0  0  0  0  0  0  0  0  0
    1.6811   -0.9592    0.0000 C   0  0  0  0  0  0  0  0  0  0  0  0
   -0.4623    0.2783    0.0000 C   0  0  0  0  0  0  0  0  0  0  0  0
   -0.4623   -1.3717    0.0000 N   0  0  0  0  0  0  0  0  0  0  0  0
   -1.1768   -0.1342    0.0000 C   0  0  0  0  0  0  0  0  0  0  0  0
    2.3956   -1.3717    0.0000 N   0  0  0  0  0  0  0  0  0  0  0  0
    0.5793    1.0067    0.0000 C   0  0  0  0  0  0  0  0  0  0  0  0
    1.3540    1.0067    0.0000 C   0  0  0  0  0  0  0  0  0  0  0  0
   -1.8912    0.2783    0.0000 C   0  0  0  0  0  0  0  0  0  0  0  0
   -0.4623    1.1033    0.0000 C   0  0  0  0  0  0  0  0  0  0  0  0
   -1.1768    1.5158    0.0000 C   0  0  0  0  0  0  0  0  0  0  0  0
   -1.8912    1.1033    0.0000 C   0  0  0  0  0  0  0  0  0  0  0  0
   -2.6057   -0.1342    0.0000 C   0  0  0  0  0  0  0  0  0  0  0  0
  2  1  1  0
  2  3  2  0
  4  1  1  0
  5  4  1  0
  6  5  2  0
  7  1  1  0
  8  2  1  0
  7  9  2  0
 10  6  1  0
 11  4  1  0
 12  4  1  0
 13  9  1  0
 14  7  1  0
 15 14  2  0
 13 16  2  0
 17 13  1  0
  6  3  1  0
 15 16  1  0
M  END

> <chembl_id>
CHEMBL7070

> <chembl_pref_name>
None

$$$$

     RDKit          2D

 24 26  0  0  0  0  0  0  0  0999 V2000
    4.3875   -1.3542    0.0000 C   0  0  0  0  0  0  0  0  0  0  0  0
    4.9167   -0.7292    0.0000 C   0  0  0  0  0  0  0  0  0  0  0  0
    3.6167   -1.0375    0.0000 N   0  0  0  0  0  0  0  0  0  0  0  0
    2.7542   -2.2500    0.0000 C   0  0  0  0  0  0  0  0  0  0  0  0
    4.4917   -0.0292    0.0000 N   0  0  0  0  0  0  0  0  0  0  0  0
    3.3000   -2.8625    0.0000 C   0  0  0  0  0  0  0  0  0  0  0  0
    2.9000   -1.4292    0.0000 C   0  0  0  0  0  0  0  0  0  0  0  0
    4.1125   -2.8125    0.0000 N   0  0  0  0  0  0  0  0  0  0  0  0
    3.6875   -0.2167    0.0000 C   0  0  0  0  0  0  0  0  0  0  0  0
    5.7417   -0.7792    0.0000 C   0  0  0  0  0  0  0  0  0  0  0  0
    4.5917   -2.1417    0.0000 C   0  0  0  0  0  0  0  0  0  0  0  0
    6.1125   -1.5250    0.0000 O   0  0  0  0  0  0  0  0  0  0  0  0
    1.9792   -2.5375    0.0000 C   0  0  0  0  0  0  0  0  0  0  0  0
    2.2542   -0.9042    0.0000 C   0  0  0  0  0  0  0  0  0  0  0  0
    2.9875   -3.6292    0.0000 O   0  0  0  0  0  0  0  0  0  0  0  0
    6.2042   -0.0917    0.0000 O   0  0  0  0  0  0  0  0  0  0  0  0
    6.9292   -1.5750    0.0000 C   0  0  0  0  0  0  0  0  0  0  0  0
    1.3417   -2.0125    0.0000 C   0  0  0  0  0  0  0  0  0  0  0  0
    1.4792   -1.1917    0.0000 C   0  0  0  0  0  0  0  0  0  0  0  0
    4.5042   -3.5417    0.0000 C   0  0  0  0  0  0  0  0  0  0  0  0
    0.5750   -2.2917    0.0000 Cl  0  0  0  0  0  0  0  0  0  0  0  0
    7.3000   -2.3167    0.0000 C   0  0  0  0  0  0  0  0  0  0  0  0
    7.3917   -0.8875    0.0000 C   0  0  0  0  0  0  0  0  0  0  0  0
    7.7542   -1.5750    0.0000 C   0  0  0  0  0  0  0  0  0  0  0  0
  2  1  2  0
  3  1  1  0
  4  7  2  0
  5  2  1  0
  6  8  1  0
  7  3  1  0
  8 11  1  0
  9  3  1  0
 10  2  1  0
 11  1  1  0
 12 10  1  0
 13  4  1  0
 14  7  1  0
 15  6  2  0
 16 10  2  0
 17 12  1  0
 18 19  1  0
 19 14  2  0
 20  8  1  0
 21 18  1  0
 22 17  1  0
 23 17  1  0
 24 17  1  0
  5  9  2  0
  4  6  1  0
 18 13  2  0
M  END

> <chembl_id>
CHEMBL415293

> <chembl_pref_name>
None

$$$$

     RDKit          2D

 20 22  0  0  0  0  0  0  0  0999 V2000
    2.8295   -5.5337    0.0000 N   0  0  0  0  0  0  0  0  0  0  0  0
   -0.0271   -3.8875    0.0000 C   0  0  0  0  0  0  0  0  0  0  0  0
    3.5417   -5.1173    0.0000 C   0  0  0  0  0  0  0  0  0  0  0  0
    4.2578   -5.5260    0.0000 N   0  0  0  0  0  0  0  0  0  0  0  0
    2.8217   -3.8797    0.0000 N   0  0  0  0  0  0  0  0  0  0  0  0
    0.6851   -4.2961    0.0000 C   0  0  0  0  0  0  0  0  0  0  0  0
    2.1095   -5.1173    0.0000 C   0  0  0  0  0  0  0  0  0  0  0  0
    2.1095   -4.2961    0.0000 C   0  0  0  0  0  0  0  0  0  0  0  0
    1.3973   -3.8797    0.0000 C   0  0  0  0  0  0  0  0  0  0  0  0
    3.5339   -4.2884    0.0000 C   0  0  0  0  0  0  0  0  0  0  0  0
    5.6822   -6.3432    0.0000 N   0  0  0  0  0  0  0  0  0  0  0  0
    0.6851   -5.1251    0.0000 C   0  0  0  0  0  0  0  0  0  0  0  0
    1.3973   -5.5376    0.0000 C   0  0  0  0  0  0  0  0  0  0  0  0
   -0.0310   -3.0624    0.0000 F   0  0  0  0  0  0  0  0  0  0  0  0
   -0.7432   -4.3000    0.0000 F   0  0  0  0  0  0  0  0  0  0  0  0
    0.5528   -3.3037    0.0000 F   0  0  0  0  0  0  0  0  0  0  0  0
    4.2578   -6.3510    0.0000 C   0  0  0  0  0  0  0  0  0  0  0  0
    4.9661   -5.1056    0.0000 C   0  0  0  0  0  0  0  0  0  0  0  0
    5.6822   -5.5220    0.0000 C   0  0  0  0  0  0  0  0  0  0  0  0
    4.9700   -6.7596    0.0000 C   0  0  0  0  0  0  0  0  0  0  0  0
  2  6  1  0
  3  1  2  0
  4  3  1  0
  5  8  1  0
  6 12  2  0
  7  1  1  0
  8  7  1  0
  9  8  2  0
 10  3  1  0
 11 19  1  0
 12 13  1  0
 13  7  2  0
 14  2  1  0
 15  2  1  0
 16  2  1  0
 17  4  1  0
 18  4  1  0
 19 18  1  0
 20 17  1  0
  5 10  2  0
  6  9  1  0
 11 20  1  0
M  END

> <chembl_id>
CHEMBL266088

> <chembl_pref_name>
None

$$$$

     RDKit          2D

 17 19  0  0  0  0  0  0  0  0999 V2000
    6.5875   -7.2750    0.0000 N   0  0  0  0  0  0  0  0  0  0  0  0
    7.3500   -6.8292    0.0000 C   0  0  0  0  0  0  0  0  0  0  0  0
    8.1167   -7.2667    0.0000 N   0  0  0  0  0  0  0  0  0  0  0  0
    6.5792   -5.5042    0.0000 N   0  0  0  0  0  0  0  0  0  0  0  0
    5.8167   -5.9500    0.0000 C   0  0  0  0  0  0  0  0  0  0  0  0
    5.8167   -6.8292    0.0000 C   0  0  0  0  0  0  0  0  0  0  0  0
    5.0542   -5.5042    0.0000 C   0  0  0  0  0  0  0  0  0  0  0  0
    7.3417   -5.9417    0.0000 C   0  0  0  0  0  0  0  0  0  0  0  0
    9.6417   -8.1417    0.0000 N   0  0  0  0  0  0  0  0  0  0  0  0
    5.0542   -7.2792    0.0000 C   0  0  0  0  0  0  0  0  0  0  0  0
    4.2917   -5.9500    0.0000 C   0  0  0  0  0  0  0  0  0  0  0  0
    3.5292   -5.5125    0.0000 N   0  0  0  0  0  0  0  0  0  0  0  0
    4.2917   -6.8375    0.0000 C   0  0  0  0  0  0  0  0  0  0  0  0
    8.8750   -6.8167    0.0000 C   0  0  0  0  0  0  0  0  0  0  0  0
    8.1167   -8.1500    0.0000 C   0  0  0  0  0  0  0  0  0  0  0  0
    8.8792   -8.5875    0.0000 C   0  0  0  0  0  0  0  0  0  0  0  0
    9.6417   -7.2625    0.0000 C   0  0  0  0  0  0  0  0  0  0  0  0
  2  1  2  0
  3  2  1  0
  4  5  1  0
  5  6  1  0
  6  1  1  0
  7  5  2  0
  8  2  1  0
  9 16  1  0
 10  6  2  0
 11 13  2  0
 12 11  1  0
 13 10  1  0
 14  3  1  0
 15  3  1  0
 16 15  1  0
 17 14  1  0
  4  8  2  0
 11  7  1  0
 17  9  1  0
M  END

> <chembl_id>
CHEMBL6684

> <chembl_pref_name>
None

$$$$

     RDKit          2D

 17 18  0  0  0  0  0  0  0  0999 V2000
    4.0292  -11.1500    0.0000 C   0  0  0  0  0  0  0  0  0  0  0  0
    5.3292  -10.3958    0.0000 N   0  0  0  0  0  0  0  0  0  0  0  0
    2.7292  -10.4000    0.0000 N   0  0  0  0  0  0  0  0  0  0  0  0
    4.0250   -8.1500    0.0000 N   0  0  0  0  0  0  0  0  0  0  0  0
    5.3250   -8.8958    0.0000 C   0  0  0  0  0  0  0  0  0  0  0  0
    2.7292   -8.9000    0.0000 C   0  0  0  0  0  0  0  0  0  0  0  0
    6.6292  -11.1500    0.0000 C   0  0  0  0  0  0  0  0  0  0  0  0
    4.0333  -12.3500    0.0000 N   0  0  0  0  0  0  0  0  0  0  0  0
    1.6917   -8.3042    0.0000 N   0  0  0  0  0  0  0  0  0  0  0  0
    7.9292  -10.4000    0.0000 C   0  0  0  0  0  0  0  0  0  0  0  0
    6.6292  -12.6500    0.0000 C   0  0  0  0  0  0  0  0  0  0  0  0
    6.3500   -9.5208    0.0000 C   0  0  0  0  0  0  0  0  0  0  0  0
    5.2958   -7.7000    0.0000 C   0  0  0  0  0  0  0  0  0  0  0  0
    9.2250  -11.1500    0.0000 C   0  0  0  0  0  0  0  0  0  0  0  0
    7.9292  -13.4000    0.0000 C   0  0  0  0  0  0  0  0  0  0  0  0
    9.2250  -12.6500    0.0000 C   0  0  0  0  0  0  0  0  0  0  0  0
   10.2667  -13.2500    0.0000 C   0  0  0  0  0  0  0  0  0  0  0  0
  2  1  1  0
  1  3  2  0
  6  4  2  0
  5  2  1  0
  6  3  1  0
  7  2  1  0
  8  1  1  0
  9  6  1  0
 10  7  2  0
 11  7  1  0
 12  5  1  0
 13  5  1  0
 14 10  1  0
 15 11  2  0
 16 15  1  0
 17 16  1  0
  5  4  1  0
 14 16  2  0
M  END

> <chembl_id>
CHEMBL7004

> <chembl_pref_name>
None

$$$$

     RDKit          2D

 18 19  0  0  0  0  0  0  0  0999 V2000
    2.5792    0.8750    0.0000 Cl  0  0  0  0  0  0  0  0  0  0  0  0
   -0.1250    0.1833    0.0000 C   0  0  0  0  0  0  0  0  0  0  0  0
   -0.5958    0.5583    0.0000 C   0  0  0  0  0  0  0  0  0  0  0  0
   -1.1500    0.3500    0.0000 C   0  0  0  0  0  0  0  0  0  0  0  0
   -0.7708   -0.6250    0.0000 C   0  0  0  0  0  0  0  0  0  0  0  0
   -1.2333   -0.2500    0.0000 C   0  0  0  0  0  0  0  0  0  0  0  0
   -0.2208   -0.4042    0.0000 C   0  0  0  0  0  0  0  0  0  0  0  0
   -0.6208    1.1583    0.0000 O   0  0  0  0  0  0  0  0  0  0  0  0
   -0.7333   -1.2167    0.0000 O   0  0  0  0  0  0  0  0  0  0  0  0
    0.4292    0.4083    0.0000 C   0  0  0  0  0  0  0  0  0  0  0  0
    1.3792    0.3875    0.0000 N   0  0  0  0  0  0  0  0  0  0  0  0
   -1.7958   -0.4625    0.0000 Br  0  0  0  0  0  0  0  0  0  0  0  0
   -1.5208    0.8125    0.0000 C   0  0  0  0  0  0  0  0  0  0  0  0
    0.9000    0.0375    0.0000 C   0  0  0  0  0  0  0  0  0  0  0  0
    0.1667   -0.8625    0.0000 C   0  0  0  0  0  0  0  0  0  0  0  0
   -1.1958    1.3125    0.0000 C   0  0  0  0  0  0  0  0  0  0  0  0
   -0.1500   -1.3667    0.0000 C   0  0  0  0  0  0  0  0  0  0  0  0
    1.1125   -0.5250    0.0000 C   0  0  0  0  0  0  0  0  0  0  0  0
  3  2  2  0
  4  3  1  0
  5  7  2  0
  6  5  1  0
  7  2  1  0
  8  3  1  0
  9  5  1  0
 10  2  1  0
 11 14  1  0
 12  6  1  0
 13  4  1  0
 14 10  1  0
 15  7  1  0
 16  8  1  0
 17 15  1  0
 14 18  1  6
  9 17  1  0
  4  6  2  0
 16 13  1  0
M  END

> <chembl_id>
CHEMBL6710

> <chembl_pref_name>
None

$$$$

     RDKit          2D

 15 15  0  0  0  0  0  0  0  0999 V2000
    1.0417   -5.0500    0.0000 Cl  0  0  0  0  0  0  0  0  0  0  0  0
   -1.3333   -3.0250    0.0000 C   0  0  0  0  0  0  0  0  0  0  0  0
   -0.5125   -3.5417    0.0000 N   0  0  0  0  0  0  0  0  0  0  0  0
   -0.7333   -2.9875    0.0000 C   0  0  0  0  0  0  0  0  0  0  0  0
   -1.4833   -3.6042    0.0000 C   0  0  0  0  0  0  0  0  0  0  0  0
   -0.9750   -3.9292    0.0000 O   0  0  0  0  0  0  0  0  0  0  0  0
   -2.3375   -2.7542    0.0000 N   0  0  0  0  0  0  0  0  0  0  0  0
   -0.4375   -2.4667    0.0000 O   0  0  0  0  0  0  0  0  0  0  0  0
    0.4542   -1.9375    0.0000 C   0  0  0  0  0  0  0  0  0  0  0  0
   -1.7583   -2.6000    0.0000 C   0  0  0  0  0  0  0  0  0  0  0  0
    1.0542   -1.9292    0.0000 C   0  0  0  0  0  0  0  0  0  0  0  0
   -2.0625   -3.7625    0.0000 C   0  0  0  0  0  0  0  0  0  0  0  0
    0.1625   -2.4542    0.0000 C   0  0  0  0  0  0  0  0  0  0  0  0
    0.2917   -1.3542    0.0000 Br  0  0  0  0  0  0  0  0  0  0  0  0
   -2.4958   -3.3417    0.0000 C   0  0  0  0  0  0  0  0  0  0  0  0
  3  4  2  0
  4  2  1  0
  5  2  2  0
  6  5  1  0
  7 10  1  0
  8  4  1  0
  9 13  1  0
 10  2  1  0
 11  9  2  0
 12  5  1  0
 13  8  1  0
 14  9  1  0
 15  7  1  0
  6  3  1  0
 12 15  1  0
M  END

> <chembl_id>
CHEMBL6807

> <chembl_pref_name>
None

$$$$

     RDKit          2D

 14 14  0  0  0  0  0  0  0  0999 V2000
    1.0417   -5.0500    0.0000 Cl  0  0  0  0  0  0  0  0  0  0  0  0
   -1.3333   -3.0250    0.0000 C   0  0  0  0  0  0  0  0  0  0  0  0
   -0.5125   -3.5417    0.0000 N   0  0  0  0  0  0  0  0  0  0  0  0
   -0.7333   -2.9875    0.0000 C   0  0  0  0  0  0  0  0  0  0  0  0
   -1.4833   -3.6042    0.0000 C   0  0  0  0  0  0  0  0  0  0  0  0
   -0.9750   -3.9292    0.0000 O   0  0  0  0  0  0  0  0  0  0  0  0
   -2.3375   -2.7542    0.0000 N   0  0  0  0  0  0  0  0  0  0  0  0
    0.4542   -1.9375    0.0000 C   0  0  0  0  0  0  0  0  0  0  0  0
    0.7500   -1.4167    0.0000 C   0  0  0  0  0  0  0  0  0  0  0  0
   -1.7583   -2.6000    0.0000 C   0  0  0  0  0  0  0  0  0  0  0  0
   -2.0625   -3.7625    0.0000 C   0  0  0  0  0  0  0  0  0  0  0  0
   -0.4375   -2.4667    0.0000 O   0  0  0  0  0  0  0  0  0  0  0  0
   -2.4958   -3.3417    0.0000 C   0  0  0  0  0  0  0  0  0  0  0  0
    0.1625   -2.4542    0.0000 C   0  0  0  0  0  0  0  0  0  0  0  0
  3  4  2  0
  4  2  1  0
  5  2  2  0
  6  5  1  0
  7 10  1  0
  8 14  1  0
  9  8  3  0
 10  2  1  0
 11  5  1  0
 12  4  1  0
 13  7  1  0
 14 12  1  0
  3  6  1  0
 13 11  1  0
M  END

> <chembl_id>
CHEMBL6767

> <chembl_pref_name>
None

$$$$

     RDKit          2D

 17 18  0  0  0  0  0  0  0  0999 V2000
    3.8667   -2.3750    0.0000 Cl  0  0  0  0  0  0  0  0  0  0  0  0
    1.1625   -3.0667    0.0000 C   0  0  0  0  0  0  0  0  0  0  0  0
    0.6917   -2.6917    0.0000 C   0  0  0  0  0  0  0  0  0  0  0  0
    1.0667   -3.6542    0.0000 C   0  0  0  0  0  0  0  0  0  0  0  0
    0.5167   -3.8750    0.0000 C   0  0  0  0  0  0  0  0  0  0  0  0
    0.1375   -2.9000    0.0000 C   0  0  0  0  0  0  0  0  0  0  0  0
    0.0542   -3.5000    0.0000 C   0  0  0  0  0  0  0  0  0  0  0  0
    0.6667   -2.0917    0.0000 O   0  0  0  0  0  0  0  0  0  0  0  0
    0.5542   -4.4667    0.0000 O   0  0  0  0  0  0  0  0  0  0  0  0
    1.1375   -4.6167    0.0000 C   0  0  0  0  0  0  0  0  0  0  0  0
    0.0917   -1.9375    0.0000 C   0  0  0  0  0  0  0  0  0  0  0  0
    1.7167   -2.8417    0.0000 C   0  0  0  0  0  0  0  0  0  0  0  0
    1.4542   -4.1125    0.0000 C   0  0  0  0  0  0  0  0  0  0  0  0
   -0.2333   -2.4375    0.0000 C   0  0  0  0  0  0  0  0  0  0  0  0
    2.6667   -2.8625    0.0000 N   0  0  0  0  0  0  0  0  0  0  0  0
    2.1875   -3.2125    0.0000 C   0  0  0  0  0  0  0  0  0  0  0  0
    2.4000   -3.7750    0.0000 C   0  0  0  0  0  0  0  0  0  0  0  0
  3  2  2  0
  4  2  1  0
  5  4  2  0
  6  3  1  0
  7  5  1  0
  8  3  1  0
  9  5  1  0
 10 13  2  0
 11  8  1  0
 12  2  1  0
 13  4  1  0
 14  6  1  0
 15 16  1  0
 16 12  1  0
 16 17  1  1
  9 10  1  0
  6  7  2  0
 11 14  2  0
M  END

> <chembl_id>
CHEMBL6838

> <chembl_pref_name>
None

$$$$

     RDKit          2D

 15 15  0  0  0  0  0  0  0  0999 V2000
    1.0417   -5.0500    0.0000 Cl  0  0  0  0  0  0  0  0  0  0  0  0
   -1.3333   -3.0250    0.0000 C   0  0  0  0  0  0  0  0  0  0  0  0
   -0.5125   -3.5417    0.0000 N   0  0  0  0  0  0  0  0  0  0  0  0
   -0.7333   -2.9875    0.0000 C   0  0  0  0  0  0  0  0  0  0  0  0
   -1.4833   -3.6042    0.0000 C   0  0  0  0  0  0  0  0  0  0  0  0
   -0.9750   -3.9292    0.0000 O   0  0  0  0  0  0  0  0  0  0  0  0
   -2.3375   -2.7542    0.0000 N   0  0  0  0  0  0  0  0  0  0  0  0
   -1.7583   -2.6000    0.0000 C   0  0  0  0  0  0  0  0  0  0  0  0
    0.4542   -1.9375    0.0000 C   0  0  0  0  0  0  0  0  0  0  0  0
    1.0542   -1.9292    0.0000 C   0  0  0  0  0  0  0  0  0  0  0  0
   -2.0625   -3.7625    0.0000 C   0  0  0  0  0  0  0  0  0  0  0  0
   -0.4375   -2.4667    0.0000 O   0  0  0  0  0  0  0  0  0  0  0  0
   -2.4958   -3.3417    0.0000 C   0  0  0  0  0  0  0  0  0  0  0  0
    0.1625   -2.4542    0.0000 C   0  0  0  0  0  0  0  0  0  0  0  0
    1.3500   -1.4042    0.0000 C   0  0  0  0  0  0  0  0  0  0  0  0
  3  4  2  0
  4  2  1  0
  5  2  2  0
  6  5  1  0
  7  8  1  0
  8  2  1  0
  9 14  1  0
 10  9  2  0
 11  5  1  0
 12  4  1  0
 13  7  1  0
 14 12  1  0
 15 10  1  0
  3  6  1  0
 13 11  1  0
M  END

> <chembl_id>
CHEMBL6375

> <chembl_pref_name>
None

$$$$

     RDKit          2D

 15 15  0  0  0  0  0  0  0  0999 V2000
    1.0417   -5.0500    0.0000 Cl  0  0  0  0  0  0  0  0  0  0  0  0
   -1.3333   -3.0250    0.0000 C   0  0  0  0  0  0  0  0  0  0  0  0
   -0.5125   -3.5417    0.0000 N   0  0  0  0  0  0  0  0  0  0  0  0
   -0.7333   -2.9875    0.0000 C   0  0  0  0  0  0  0  0  0  0  0  0
   -1.4833   -3.6042    0.0000 C   0  0  0  0  0  0  0  0  0  0  0  0
   -0.9750   -3.9292    0.0000 O   0  0  0  0  0  0  0  0  0  0  0  0
   -2.3375   -2.7542    0.0000 N   0  0  0  0  0  0  0  0  0  0  0  0
   -0.4375   -2.4667    0.0000 O   0  0  0  0  0  0  0  0  0  0  0  0
   -1.7583   -2.6000    0.0000 C   0  0  0  0  0  0  0  0  0  0  0  0
   -2.0625   -3.7625    0.0000 C   0  0  0  0  0  0  0  0  0  0  0  0
    0.1625   -2.4542    0.0000 C   0  0  0  0  0  0  0  0  0  0  0  0
   -2.4958   -3.3417    0.0000 C   0  0  0  0  0  0  0  0  0  0  0  0
    0.4542   -1.9375    0.0000 C   0  0  0  0  0  0  0  0  0  0  0  0
    0.1500   -1.4167    0.0000 C   0  0  0  0  0  0  0  0  0  0  0  0
    1.0542   -1.9292    0.0000 C   0  0  0  0  0  0  0  0  0  0  0  0
  3  4  2  0
  4  2  1  0
  5  2  2  0
  6  5  1  0
  7  9  1  0
  8  4  1  0
  9  2  1  0
 10  5  1  0
 11  8  1  0
 12  7  1  0
 13 11  1  0
 14 13  1  0
 15 13  1  0
  3  6  1  0
 12 10  1  0
M  END

> <chembl_id>
CHEMBL6377

> <chembl_pref_name>
None

$$$$

     RDKit          2D

 24 26  0  0  0  0  0  0  0  0999 V2000
    5.7542   -2.3417    0.0000 Cl  0  0  0  0  0  0  0  0  0  0  0  0
    2.9917   -3.4917    0.0000 C   0  0  0  0  0  0  0  0  0  0  0  0
    2.9917   -2.8917    0.0000 C   0  0  0  0  0  0  0  0  0  0  0  0
    3.5125   -2.5917    0.0000 C   0  0  0  0  0  0  0  0  0  0  0  0
    3.5125   -3.7917    0.0000 C   0  0  0  0  0  0  0  0  0  0  0  0
    4.0292   -3.4917    0.0000 C   0  0  0  0  0  0  0  0  0  0  0  0
    4.0292   -2.8917    0.0000 C   0  0  0  0  0  0  0  0  0  0  0  0
    2.4792   -3.7917    0.0000 O   0  0  0  0  0  0  0  0  0  0  0  0
    2.4792   -2.5917    0.0000 C   0  0  0  0  0  0  0  0  0  0  0  0
    4.0250   -1.6917    0.0000 N   0  0  0  0  0  0  0  0  0  0  0  0
    1.9542   -3.4917    0.0000 C   0  0  0  0  0  0  0  0  0  0  0  0
    3.5042   -1.9917    0.0000 C   0  0  0  0  0  0  0  0  0  0  0  0
    1.9542   -2.8917    0.0000 C   0  0  0  0  0  0  0  0  0  0  0  0
    4.6042   -3.6792    0.0000 O   0  0  0  0  0  0  0  0  0  0  0  0
    4.6042   -2.7042    0.0000 C   0  0  0  0  0  0  0  0  0  0  0  0
    4.9625   -3.1917    0.0000 C   0  0  0  0  0  0  0  0  0  0  0  0
    1.4375   -3.7917    0.0000 O   0  0  0  0  0  0  0  0  0  0  0  0
    5.0625   -1.0917    0.0000 O   0  0  0  0  0  0  0  0  0  0  0  0
    3.5167   -4.3917    0.0000 O   0  0  0  0  0  0  0  0  0  0  0  0
    4.5417   -1.9917    0.0000 C   0  0  0  0  0  0  0  0  0  0  0  0
    4.0250   -1.0917    0.0000 C   0  0  0  0  0  0  0  0  0  0  0  0
    5.0625   -1.6917    0.0000 C   0  0  0  0  0  0  0  0  0  0  0  0
    4.5417   -0.7917    0.0000 C   0  0  0  0  0  0  0  0  0  0  0  0
    2.9917   -4.6917    0.0000 C   0  0  0  0  0  0  0  0  0  0  0  0
  3  2  2  0
  4  3  1  0
  5  2  1  0
  6  5  2  0
  7  6  1  0
  8  2  1  0
  9  3  1  0
 10 12  1  0
 11  8  1  0
 12  4  1  0
 13 11  1  0
 14  6  1  0
 15  7  1  0
 16 14  1  0
 17 11  2  0
 18 23  1  0
 19  5  1  0
 20 10  1  0
 21 10  1  0
 22 20  1  0
 23 21  1  0
 24 19  1  0
  9 13  2  0
  4  7  2  0
 16 15  2  0
 22 18  1  0
M  END

> <chembl_id>
CHEMBL428334

> <chembl_pref_name>
None

$$$$

     RDKit          2D

 12 12  0  0  0  0  0  0  0  0999 V2000
    1.0417   -5.0500    0.0000 Cl  0  0  0  0  0  0  0  0  0  0  0  0
   -1.3333   -3.0250    0.0000 C   0  0  0  0  0  0  0  0  0  0  0  0
   -0.5125   -3.5417    0.0000 N   0  0  0  0  0  0  0  0  0  0  0  0
   -0.7333   -2.9875    0.0000 C   0  0  0  0  0  0  0  0  0  0  0  0
   -1.4833   -3.6042    0.0000 C   0  0  0  0  0  0  0  0  0  0  0  0
   -0.9750   -3.9292    0.0000 O   0  0  0  0  0  0  0  0  0  0  0  0
   -2.3375   -2.7542    0.0000 N   0  0  0  0  0  0  0  0  0  0  0  0
   -1.7583   -2.6000    0.0000 C   0  0  0  0  0  0  0  0  0  0  0  0
   -2.0625   -3.7625    0.0000 C   0  0  0  0  0  0  0  0  0  0  0  0
   -0.4375   -2.4667    0.0000 O   0  0  0  0  0  0  0  0  0  0  0  0
   -2.4958   -3.3417    0.0000 C   0  0  0  0  0  0  0  0  0  0  0  0
    0.1625   -2.4542    0.0000 C   0  0  0  0  0  0  0  0  0  0  0  0
  3  4  2  0
  4  2  1  0
  5  2  2  0
  6  5  1  0
  7  8  1  0
  8  2  1  0
  9  5  1  0
 10  4  1  0
 11  7  1  0
 12 10  1  0
  3  6  1  0
 11  9  1  0
M  END

> <chembl_id>
CHEMBL6451

> <chembl_pref_name>
None

$$$$

     RDKit          2D

 21 22  0  0  0  0  0  0  0  0999 V2000
    4.3750    0.5333    0.0000 Cl  0  0  0  0  0  0  0  0  0  0  0  0
    0.5542   -0.5917    0.0000 C   0  0  0  0  0  0  0  0  0  0  0  0
    1.0167   -0.9667    0.0000 C   0  0  0  0  0  0  0  0  0  0  0  0
    0.6417    0.0083    0.0000 C   0  0  0  0  0  0  0  0  0  0  0  0
    1.6667   -0.1542    0.0000 C   0  0  0  0  0  0  0  0  0  0  0  0
    1.2000    0.2125    0.0000 C   0  0  0  0  0  0  0  0  0  0  0  0
    0.0000   -0.8042    0.0000 C   0  0  0  0  0  0  0  0  0  0  0  0
    1.5750   -0.7542    0.0000 C   0  0  0  0  0  0  0  0  0  0  0  0
    1.0542   -1.5625    0.0000 O   0  0  0  0  0  0  0  0  0  0  0  0
    1.1667    0.8125    0.0000 O   0  0  0  0  0  0  0  0  0  0  0  0
    2.2250    0.0583    0.0000 C   0  0  0  0  0  0  0  0  0  0  0  0
    3.1667    0.0458    0.0000 N   0  0  0  0  0  0  0  0  0  0  0  0
   -0.1000   -1.3917    0.0000 F   0  0  0  0  0  0  0  0  0  0  0  0
   -0.5208   -1.1042    0.0000 F   0  0  0  0  0  0  0  0  0  0  0  0
   -0.4625   -0.4292    0.0000 F   0  0  0  0  0  0  0  0  0  0  0  0
    0.2667    0.4708    0.0000 C   0  0  0  0  0  0  0  0  0  0  0  0
    1.9542   -1.2042    0.0000 C   0  0  0  0  0  0  0  0  0  0  0  0
    2.6917   -0.3042    0.0000 C   0  0  0  0  0  0  0  0  0  0  0  0
    1.6417   -1.7167    0.0000 C   0  0  0  0  0  0  0  0  0  0  0  0
    0.5917    0.9708    0.0000 C   0  0  0  0  0  0  0  0  0  0  0  0
    2.9042   -0.8667    0.0000 C   0  0  0  0  0  0  0  0  0  0  0  0
  3  2  1  0
  4  2  2  0
  5  6  2  0
  6  4  1  0
  7  2  1  0
  8  3  2  0
  9  3  1  0
 10  6  1  0
 11  5  1  0
 12 18  1  0
 13  7  1  0
 14  7  1  0
 15  7  1  0
 16  4  1  0
 17  8  1  0
 18 11  1  0
 19  9  1  0
 20 16  1  0
 18 21  1  6
  5  8  1  0
 10 20  1  0
 17 19  1  0
M  END

> <chembl_id>
CHEMBL6452

> <chembl_pref_name>
None

$$$$

     RDKit          2D

 29 30  0  0  1  0  0  0  0  0999 V2000
    2.4250    0.0083    0.0000 N   0  0  0  0  0  0  0  0  0  0  0  0
    3.8167    0.5958    0.0000 C   0  0  0  0  0  0  0  0  0  0  0  0
    2.4250   -0.8042    0.0000 C   0  0  0  0  0  0  0  0  0  0  0  0
    3.0042    0.5958    0.0000 C   0  0  0  0  0  0  0  0  0  0  0  0
    4.4000    0.0083    0.0000 N   0  0  0  0  0  0  0  0  0  0  0  0
    3.0042   -1.3792    0.0000 C   0  0  0  0  0  0  0  0  0  0  0  0
    1.7542   -3.1792    0.0000 C   0  0  0  0  0  0  0  0  0  0  0  0
    1.5167   -3.9792    0.0000 C   0  0  0  0  0  0  0  0  0  0  0  0
    1.6375   -1.0167    0.0000 C   0  0  0  0  0  0  0  0  0  0  0  0
    4.1375    1.3583    0.0000 O   0  0  0  0  0  0  0  0  0  0  0  0
    3.8167   -1.3792    0.0000 C   0  0  0  0  0  0  0  0  0  0  0  0
    2.7917   -2.1667    0.0000 C   0  0  0  0  0  0  0  0  0  0  0  0
    4.4000   -0.8042    0.0000 C   0  0  0  0  0  0  0  0  0  0  0  0
    1.9917   -2.3792    0.0000 C   0  0  0  0  0  0  0  0  0  0  0  0
    1.6542    0.3333    0.0000 C   0  0  0  0  0  0  0  0  0  0  0  0
    2.6917    1.3708    0.0000 C   0  0  0  0  0  0  0  0  0  0  0  0
    1.4250   -1.8167    0.0000 C   0  0  0  0  0  0  0  0  0  0  0  0
    1.2792   -4.7667    0.0000 C   0  0  0  0  0  0  0  0  0  0  0  0
    5.8292   -0.5917    0.0000 O   0  0  0  0  0  0  0  0  0  0  0  0
    5.1792   -1.1167    0.0000 C   0  0  0  0  0  0  0  0  0  0  0  0
    3.2167    2.0208    0.0000 C   0  0  0  0  0  0  0  0  0  0  0  0
    1.8792    1.4958    0.0000 C   0  0  0  0  0  0  0  0  0  0  0  0
    1.8500   -5.3667    0.0000 C   0  0  0  0  0  0  0  0  0  0  0  0
    2.3167   -8.9042    0.0000 C   0  0  0  0  0  0  0  0  0  0  0  0
    2.5417   -8.1167    0.0000 C   0  0  0  0  0  0  0  0  0  0  0  0
    1.9667   -7.5292    0.0000 C   0  0  0  0  0  0  0  0  0  0  0  0
    1.6167   -6.1542    0.0000 C   0  0  0  0  0  0  0  0  0  0  0  0
    2.1917   -6.7417    0.0000 C   0  0  0  0  0  0  0  0  0  0  0  0
    2.8917   -9.4917    0.0000 C   0  0  0  0  0  0  0  0  0  0  0  0
  2  4  1  0
  3  1  1  0
  4  1  1  0
  5  2  1  0
  6  3  2  0
  7 14  1  0
  8  7  3  0
  9  3  1  0
 10  2  2  0
 11  6  1  0
 12  6  1  0
 13  5  1  0
 14 17  1  0
 15  1  1  0
  4 16  1  1
 17  9  2  0
 18  8  1  0
 19 20  1  0
 13 20  1  6
 21 16  1  0
 22 16  1  0
 23 18  1  0
 24 25  1  0
 25 26  1  0
 26 28  1  0
 27 23  1  0
 28 27  1  0
 29 24  1  0
 11 13  1  0
 12 14  2  0
M  END

> <chembl_id>
CHEMBL6453

> <chembl_pref_name>
None

$$$$

     RDKit          2D

 19 21  0  0  0  0  0  0  0  0999 V2000
    8.1167   -7.2667    0.0000 N   0  0  0  0  0  0  0  0  0  0  0  0
    6.5875   -7.2750    0.0000 N   0  0  0  0  0  0  0  0  0  0  0  0
    7.3500   -6.8292    0.0000 C   0  0  0  0  0  0  0  0  0  0  0  0
    9.6417   -7.2625    0.0000 C   0  0  0  0  0  0  0  0  0  0  0  0
   10.4042   -6.8167    0.0000 C   0  0  0  0  0  0  0  0  0  0  0  0
    8.8750   -6.8167    0.0000 C   0  0  0  0  0  0  0  0  0  0  0  0
    6.5792   -5.5042    0.0000 N   0  0  0  0  0  0  0  0  0  0  0  0
    9.6417   -8.1417    0.0000 N   0  0  0  0  0  0  0  0  0  0  0  0
    5.8167   -6.8292    0.0000 C   0  0  0  0  0  0  0  0  0  0  0  0
    7.3417   -5.9417    0.0000 C   0  0  0  0  0  0  0  0  0  0  0  0
    5.8167   -5.9500    0.0000 C   0  0  0  0  0  0  0  0  0  0  0  0
   10.4042   -5.9375    0.0000 O   0  0  0  0  0  0  0  0  0  0  0  0
   11.1667   -7.2625    0.0000 O   0  0  0  0  0  0  0  0  0  0  0  0
    8.1167   -8.1500    0.0000 C   0  0  0  0  0  0  0  0  0  0  0  0
    8.8792   -8.5875    0.0000 C   0  0  0  0  0  0  0  0  0  0  0  0
    5.0542   -7.2792    0.0000 C   0  0  0  0  0  0  0  0  0  0  0  0
    5.0542   -5.5042    0.0000 C   0  0  0  0  0  0  0  0  0  0  0  0
    4.2917   -6.8375    0.0000 C   0  0  0  0  0  0  0  0  0  0  0  0
    4.2917   -5.9500    0.0000 C   0  0  0  0  0  0  0  0  0  0  0  0
  2  3  2  0
  3  1  1  0
  4  6  1  0
  5  4  1  0
  6  1  1  0
  7 10  2  0
  8 15  1  0
  9  2  1  0
 10  3  1  0
 11  7  1  0
 12  5  2  0
 13  5  1  0
 14  1  1  0
 15 14  1  0
 16  9  2  0
 17 11  2  0
 18 16  1  0
 19 17  1  0
  4  8  1  0
  9 11  1  0
 18 19  2  0
M  END

> <chembl_id>
CHEMBL6801

> <chembl_pref_name>
None

$$$$

     RDKit          2D

 16 18  0  0  0  0  0  0  0  0999 V2000
    2.2683   -5.4061    0.0000 N   0  0  0  0  0  0  0  0  0  0  0  0
    2.9817   -4.9850    0.0000 C   0  0  0  0  0  0  0  0  0  0  0  0
    3.6990   -5.3944    0.0000 N   0  0  0  0  0  0  0  0  0  0  0  0
    2.2605   -3.7453    0.0000 N   0  0  0  0  0  0  0  0  0  0  0  0
    1.5471   -4.9928    0.0000 C   0  0  0  0  0  0  0  0  0  0  0  0
    2.9739   -4.1547    0.0000 C   0  0  0  0  0  0  0  0  0  0  0  0
    1.5471   -4.1664    0.0000 C   0  0  0  0  0  0  0  0  0  0  0  0
    5.1258   -6.2208    0.0000 N   0  0  0  0  0  0  0  0  0  0  0  0
    3.6990   -6.2247    0.0000 C   0  0  0  0  0  0  0  0  0  0  0  0
    4.4085   -4.9733    0.0000 C   0  0  0  0  0  0  0  0  0  0  0  0
    5.1258   -5.3944    0.0000 C   0  0  0  0  0  0  0  0  0  0  0  0
    4.4124   -6.6341    0.0000 C   0  0  0  0  0  0  0  0  0  0  0  0
    0.8337   -5.4061    0.0000 C   0  0  0  0  0  0  0  0  0  0  0  0
    0.8337   -3.7531    0.0000 C   0  0  0  0  0  0  0  0  0  0  0  0
    0.1203   -4.9967    0.0000 C   0  0  0  0  0  0  0  0  0  0  0  0
    0.1203   -4.1664    0.0000 C   0  0  0  0  0  0  0  0  0  0  0  0
  2  1  2  0
  3  2  1  0
  4  7  1  0
  5  1  1  0
  6  2  1  0
  7  5  1  0
  8 11  1  0
  9  3  1  0
 10  3  1  0
 11 10  1  0
 12  9  1  0
 13  5  2  0
 14  7  2  0
 15 13  1  0
 16 15  2  0
  4  6  2  0
 16 14  1  0
  8 12  1  0
M  END

> <chembl_id>
CHEMBL6780

> <chembl_pref_name>
None

$$$$

     RDKit          2D

 22 24  0  0  0  0  0  0  0  0999 V2000
    1.8750   -4.7875    0.0000 S   0  0  0  0  0  0  0  0  0  0  0  0
    5.6917   -6.1042    0.0000 C   0  0  0  0  0  0  0  0  0  0  0  0
    4.9292   -6.5500    0.0000 N   0  0  0  0  0  0  0  0  0  0  0  0
    5.6917   -5.2167    0.0000 C   0  0  0  0  0  0  0  0  0  0  0  0
    4.9250   -4.7792    0.0000 N   0  0  0  0  0  0  0  0  0  0  0  0
    6.4625   -6.5417    0.0000 N   0  0  0  0  0  0  0  0  0  0  0  0
    2.6375   -5.2250    0.0000 C   0  0  0  0  0  0  0  0  0  0  0  0
    4.1667   -5.2250    0.0000 C   0  0  0  0  0  0  0  0  0  0  0  0
    3.4000   -4.7792    0.0000 C   0  0  0  0  0  0  0  0  0  0  0  0
    4.1667   -6.1042    0.0000 C   0  0  0  0  0  0  0  0  0  0  0  0
    7.9875   -7.4167    0.0000 N   0  0  0  0  0  0  0  0  0  0  0  0
    2.1000   -3.9292    0.0000 O   0  0  0  0  0  0  0  0  0  0  0  0
    1.1042   -5.2250    0.0000 O   0  0  0  0  0  0  0  0  0  0  0  0
    1.1042   -4.3417    0.0000 N   0  0  0  0  0  0  0  0  0  0  0  0
    6.4625   -7.4250    0.0000 C   0  0  0  0  0  0  0  0  0  0  0  0
    7.2167   -6.0917    0.0000 C   0  0  0  0  0  0  0  0  0  0  0  0
    2.6375   -6.1125    0.0000 C   0  0  0  0  0  0  0  0  0  0  0  0
    3.4000   -6.5542    0.0000 C   0  0  0  0  0  0  0  0  0  0  0  0
    6.4542   -4.7667    0.0000 Cl  0  0  0  0  0  0  0  0  0  0  0  0
    7.2250   -7.8625    0.0000 C   0  0  0  0  0  0  0  0  0  0  0  0
    7.9875   -6.5375    0.0000 C   0  0  0  0  0  0  0  0  0  0  0  0
    8.6042   -8.0375    0.0000 C   0  0  0  0  0  0  0  0  0  0  0  0
  2  3  2  0
  3 10  1  0
  4  5  2  0
  5  8  1  0
  6  2  1  0
  7  1  1  0
  8  9  2  0
  9  7  1  0
 10 18  2  0
 11 21  1  0
 12  1  2  0
 13  1  2  0
 14  1  1  0
 15  6  1  0
 16  6  1  0
 17  7  2  0
 18 17  1  0
 19  4  1  0
 20 15  1  0
 21 16  1  0
 22 11  1  0
  8 10  1  0
  2  4  1  0
 20 11  1  0
M  END

> <chembl_id>
CHEMBL263084

> <chembl_pref_name>
None

$$$$

     RDKit          2D

 23 25  0  0  0  0  0  0  0  0999 V2000
    2.6875   -0.5167    0.0000 C   0  0  0  0  0  0  0  0  0  0  0  0
    3.4000   -0.9292    0.0000 C   0  0  0  0  0  0  0  0  0  0  0  0
    3.4000   -1.7542    0.0000 C   0  0  0  0  0  0  0  0  0  0  0  0
    4.8292   -1.7542    0.0000 C   0  0  0  0  0  0  0  0  0  0  0  0
    2.6875    0.3083    0.0000 C   0  0  0  0  0  0  0  0  0  0  0  0
    4.8292   -0.9292    0.0000 C   0  0  0  0  0  0  0  0  0  0  0  0
    2.6875   -2.1667    0.0000 O   0  0  0  0  0  0  0  0  0  0  0  0
    5.5417   -2.1667    0.0000 N   0  0  0  0  0  0  0  0  0  0  0  0
    1.9667   -1.7542    0.0000 C   0  0  0  0  0  0  0  0  0  0  0  0
    1.9667   -0.9292    0.0000 C   0  0  0  0  0  0  0  0  0  0  0  0
    4.1125   -2.1667    0.0000 C   0  0  0  0  0  0  0  0  0  0  0  0
    4.1125   -0.5167    0.0000 C   0  0  0  0  0  0  0  0  0  0  0  0
    5.5417   -0.5167    0.0000 C   0  0  0  0  0  0  0  0  0  0  0  0
    6.2542   -1.7542    0.0000 C   0  0  0  0  0  0  0  0  0  0  0  0
    6.2542   -0.9292    0.0000 C   0  0  0  0  0  0  0  0  0  0  0  0
    1.2500   -2.1750    0.0000 O   0  0  0  0  0  0  0  0  0  0  0  0
    2.6875    1.1333    0.0000 F   0  0  0  0  0  0  0  0  0  0  0  0
    3.5125    0.3083    0.0000 F   0  0  0  0  0  0  0  0  0  0  0  0
    1.8625    0.3083    0.0000 F   0  0  0  0  0  0  0  0  0  0  0  0
    5.5417    0.3083    0.0000 C   0  0  0  0  0  0  0  0  0  0  0  0
    7.0792   -1.7542    0.0000 C   0  0  0  0  0  0  0  0  0  0  0  0
    6.2542    0.7208    0.0000 C   0  0  0  0  0  0  0  0  0  0  0  0
    7.4917   -2.4667    0.0000 C   0  0  0  0  0  0  0  0  0  0  0  0
  2  1  1  0
  3  2  2  0
  4  6  1  0
  5  1  1  0
  6 12  2  0
  7  9  1  0
  8  4  1  0
  9 10  1  0
 10  1  2  0
 11  3  1  0
 12  2  1  0
 13  6  1  0
 14 15  1  0
 15 13  1  0
 16  9  2  0
 17  5  1  0
 18  5  1  0
 19  5  1  0
 20 13  1  0
 21 14  1  0
 22 20  1  0
 23 21  1  0
  3  7  1  0
 11  4  2  0
  8 14  1  0
M  END

> <chembl_id>
CHEMBL6721

> <chembl_pref_name>
None

$$$$

     RDKit          2D

 16 18  0  0  0  0  0  0  0  0999 V2000
   -0.3984    0.6941    0.0000 C   0  0  0  0  0  0  0  0  0  0  0  0
    2.3001    0.2816    0.0000 C   0  0  0  0  0  0  0  0  0  0  0  0
    1.8152    0.9490    0.0000 C   0  0  0  0  0  0  0  0  0  0  0  0
   -0.3984   -1.7809    0.0000 C   0  0  0  0  0  0  0  0  0  0  0  0
   -1.8273   -0.1309    0.0000 C   0  0  0  0  0  0  0  0  0  0  0  0
   -1.8273    0.6941    0.0000 C   0  0  0  0  0  0  0  0  0  0  0  0
   -1.1128    1.1066    0.0000 C   0  0  0  0  0  0  0  0  0  0  0  0
    0.3161    1.1066    0.0000 C   0  0  0  0  0  0  0  0  0  0  0  0
    1.0306    0.6941    0.0000 C   0  0  0  0  0  0  0  0  0  0  0  0
    1.0306   -0.1309    0.0000 C   0  0  0  0  0  0  0  0  0  0  0  0
    0.3161   -0.5434    0.0000 C   0  0  0  0  0  0  0  0  0  0  0  0
   -0.3984   -0.1309    0.0000 C   0  0  0  0  0  0  0  0  0  0  0  0
   -1.1128   -0.5434    0.0000 O   0  0  0  0  0  0  0  0  0  0  0  0
    1.8152   -0.3859    0.0000 O   0  0  0  0  0  0  0  0  0  0  0  0
    0.3161   -1.3684    0.0000 O   0  0  0  0  0  0  0  0  0  0  0  0
   -2.5418   -0.5434    0.0000 O   0  0  0  0  0  0  0  0  0  0  0  0
  1  7  1  0
  1  8  2  0
  1 12  1  0
  2  3  2  0
  2 14  1  0
  3  9  1  0
  4 15  1  0
  5  6  1  0
  5 13  1  0
  5 16  2  0
  6  7  2  0
  8  9  1  0
 10  9  2  0
 10 11  1  0
 10 14  1  0
 11 12  2  0
 11 15  1  0
 12 13  1  0
M  END

> <chembl_id>
CHEMBL416

> <chembl_pref_name>
METHOXSALEN

$$$$

     RDKit          2D

 19 20  0  0  0  0  0  0  0  0999 V2000
    6.0250   -3.1167    0.0000 C   0  0  0  0  0  0  0  0  0  0  0  0
    5.8042   -2.3167    0.0000 C   0  0  0  0  0  0  0  0  0  0  0  0
    5.4500   -3.7042    0.0000 C   0  0  0  0  0  0  0  0  0  0  0  0
    5.6750   -4.4917    0.0000 C   0  0  0  0  0  0  0  0  0  0  0  0
    5.0042   -2.1125    0.0000 C   0  0  0  0  0  0  0  0  0  0  0  0
    6.8167   -3.3250    0.0000 C   0  0  0  0  0  0  0  0  0  0  0  0
    5.1000   -5.0792    0.0000 O   0  0  0  0  0  0  0  0  0  0  0  0
    4.7917   -1.3167    0.0000 C   0  0  0  0  0  0  0  0  0  0  0  0
    4.4292   -2.6917    0.0000 C   0  0  0  0  0  0  0  0  0  0  0  0
    3.4125   -1.6917    0.0000 C   0  0  0  0  0  0  0  0  0  0  0  0
    6.4542   -4.7042    0.0000 O   0  0  0  0  0  0  0  0  0  0  0  0
    3.6250   -2.4750    0.0000 C   0  0  0  0  0  0  0  0  0  0  0  0
    3.9917   -1.1042    0.0000 C   0  0  0  0  0  0  0  0  0  0  0  0
    2.6042   -1.5000    0.0000 Cl  0  0  0  0  0  0  0  0  0  0  0  0
    7.0375   -4.1167    0.0000 O   0  0  0  0  0  0  0  0  0  0  0  0
    6.3792   -1.7375    0.0000 C   0  0  0  0  0  0  0  0  0  0  0  0
    7.1667   -1.9417    0.0000 C   0  0  0  0  0  0  0  0  0  0  0  0
    7.4000   -2.7375    0.0000 C   0  0  0  0  0  0  0  0  0  0  0  0
    7.7500   -4.5292    0.0000 C   0  0  0  0  0  0  0  0  0  0  0  0
  2  1  2  0
  3  1  1  0
  4  3  1  0
  5  2  1  0
  6  1  1  0
  7  4  2  0
  8  5  2  0
  9  5  1  0
 10 12  1  0
 11  4  1  0
 12  9  2  0
 13  8  1  0
 14 10  1  0
 15  6  1  0
 16  2  1  0
 17 18  1  0
 18  6  2  0
 19 15  1  0
 17 16  2  0
 13 10  2  0
M  END

> <chembl_id>
CHEMBL415475

> <chembl_pref_name>
None

$$$$

     RDKit          2D

 18 19  0  0  0  0  0  0  0  0999 V2000
    0.3969   -0.0809    0.0000 N   0  0  0  0  0  0  0  0  0  0  0  0
    0.3969   -0.9059    0.0000 C   0  0  0  0  0  0  0  0  0  0  0  0
    1.1114   -1.3184    0.0000 N   0  0  0  0  0  0  0  0  0  0  0  0
    1.1114    0.3316    0.0000 C   0  0  0  0  0  0  0  0  0  0  0  0
    1.8259   -0.0809    0.0000 N   0  0  0  0  0  0  0  0  0  0  0  0
    1.8259   -0.9059    0.0000 C   0  0  0  0  0  0  0  0  0  0  0  0
   -0.3175    0.3316    0.0000 C   0  0  0  0  0  0  0  0  0  0  0  0
   -1.0320   -0.0809    0.0000 C   0  0  0  0  0  0  0  0  0  0  0  0
   -0.3175   -1.3184    0.0000 N   0  0  0  0  0  0  0  0  0  0  0  0
    2.5403   -1.3184    0.0000 N   0  0  0  0  0  0  0  0  0  0  0  0
    0.7241    1.0600    0.0000 C   0  0  0  0  0  0  0  0  0  0  0  0
    1.4987    1.0600    0.0000 C   0  0  0  0  0  0  0  0  0  0  0  0
   -1.7465    0.3316    0.0000 C   0  0  0  0  0  0  0  0  0  0  0  0
   -0.3175    1.1566    0.0000 C   0  0  0  0  0  0  0  0  0  0  0  0
   -2.4610   -0.0809    0.0000 O   0  0  0  0  0  0  0  0  0  0  0  0
   -1.0320    1.5691    0.0000 C   0  0  0  0  0  0  0  0  0  0  0  0
   -1.7465    1.1566    0.0000 C   0  0  0  0  0  0  0  0  0  0  0  0
   -2.4610   -0.9059    0.0000 C   0  0  0  0  0  0  0  0  0  0  0  0
  2  1  1  0
  2  3  2  0
  4  1  1  0
  5  4  1  0
  6  5  2  0
  7  1  1  0
  7  8  2  0
  9  2  1  0
 10  6  1  0
 11  4  1  0
 12  4  1  0
 13  8  1  0
 14  7  1  0
 15 13  1  0
 16 14  2  0
 13 17  2  0
 18 15  1  0
  6  3  1  0
 16 17  1  0
M  END

> <chembl_id>
CHEMBL266319

> <chembl_pref_name>
None

$$$$

     RDKit          2D

 17 19  0  0  0  0  0  0  0  0999 V2000
    6.5875   -7.2750    0.0000 N   0  0  0  0  0  0  0  0  0  0  0  0
    7.3500   -6.8292    0.0000 C   0  0  0  0  0  0  0  0  0  0  0  0
    8.1167   -7.2667    0.0000 N   0  0  0  0  0  0  0  0  0  0  0  0
    6.5792   -5.5042    0.0000 N   0  0  0  0  0  0  0  0  0  0  0  0
    9.6417   -7.2625    0.0000 C   0  0  0  0  0  0  0  0  0  0  0  0
    8.8750   -6.8167    0.0000 C   0  0  0  0  0  0  0  0  0  0  0  0
    5.8167   -6.8292    0.0000 C   0  0  0  0  0  0  0  0  0  0  0  0
    9.6417   -8.1417    0.0000 N   0  0  0  0  0  0  0  0  0  0  0  0
    7.3417   -5.9417    0.0000 C   0  0  0  0  0  0  0  0  0  0  0  0
    5.8167   -5.9500    0.0000 C   0  0  0  0  0  0  0  0  0  0  0  0
   10.4042   -6.8167    0.0000 O   0  0  0  0  0  0  0  0  0  0  0  0
    8.1167   -8.1500    0.0000 C   0  0  0  0  0  0  0  0  0  0  0  0
    8.8792   -8.5875    0.0000 C   0  0  0  0  0  0  0  0  0  0  0  0
    5.0542   -7.2792    0.0000 C   0  0  0  0  0  0  0  0  0  0  0  0
    5.0542   -5.5042    0.0000 C   0  0  0  0  0  0  0  0  0  0  0  0
    4.2917   -6.8375    0.0000 C   0  0  0  0  0  0  0  0  0  0  0  0
    4.2917   -5.9500    0.0000 C   0  0  0  0  0  0  0  0  0  0  0  0
  2  1  2  0
  3  2  1  0
  4 10  1  0
  5  6  1  0
  6  3  1  0
  7  1  1  0
  8 13  1  0
  9  2  1  0
 10  7  1  0
 11  5  2  0
 12  3  1  0
 13 12  1  0
 14  7  2  0
 15 10  2  0
 16 14  1  0
 17 16  2  0
  4  9  2  0
 17 15  1  0
  5  8  1  0
M  END

> <chembl_id>
CHEMBL6695

> <chembl_pref_name>
None

$$$$

     RDKit          2D

 17 19  0  0  0  0  0  0  0  0999 V2000
    6.5875   -7.2750    0.0000 N   0  0  0  0  0  0  0  0  0  0  0  0
    7.3500   -6.8292    0.0000 C   0  0  0  0  0  0  0  0  0  0  0  0
    5.8167   -6.8292    0.0000 C   0  0  0  0  0  0  0  0  0  0  0  0
    8.1167   -7.2667    0.0000 N   0  0  0  0  0  0  0  0  0  0  0  0
    6.5792   -5.5042    0.0000 N   0  0  0  0  0  0  0  0  0  0  0  0
    7.3417   -5.9417    0.0000 C   0  0  0  0  0  0  0  0  0  0  0  0
    5.8167   -5.9500    0.0000 C   0  0  0  0  0  0  0  0  0  0  0  0
    5.0542   -7.2792    0.0000 C   0  0  0  0  0  0  0  0  0  0  0  0
    9.6417   -8.1417    0.0000 N   0  0  0  0  0  0  0  0  0  0  0  0
    5.0500   -8.1625    0.0000 F   0  0  0  0  0  0  0  0  0  0  0  0
    8.8750   -6.8167    0.0000 C   0  0  0  0  0  0  0  0  0  0  0  0
    8.1167   -8.1500    0.0000 C   0  0  0  0  0  0  0  0  0  0  0  0
    8.8792   -8.5875    0.0000 C   0  0  0  0  0  0  0  0  0  0  0  0
    9.6417   -7.2625    0.0000 C   0  0  0  0  0  0  0  0  0  0  0  0
    4.2917   -5.9500    0.0000 C   0  0  0  0  0  0  0  0  0  0  0  0
    4.2917   -6.8375    0.0000 C   0  0  0  0  0  0  0  0  0  0  0  0
    5.0542   -5.5042    0.0000 C   0  0  0  0  0  0  0  0  0  0  0  0
  2  1  2  0
  3  1  1  0
  4  2  1  0
  5  7  1  0
  6  2  1  0
  7  3  1  0
  8  3  2  0
  9 13  1  0
 10  8  1  0
 11  4  1  0
 12  4  1  0
 13 12  1  0
 14 11  1  0
 15 16  2  0
 16  8  1  0
 17  7  2  0
  5  6  2  0
 15 17  1  0
 14  9  1  0
M  END

> <chembl_id>
CHEMBL6756

> <chembl_pref_name>
None

$$$$

     RDKit          2D

 24 25  0  0  0  0  0  0  0  0999 V2000
    3.3750    0.4208    0.0000 N   0  0  0  0  0  0  0  0  0  0  0  0
    1.2917    0.4125    0.0000 O   0  0  0  0  0  0  0  0  0  0  0  0
    2.3375    0.4208    0.0000 C   0  0  0  0  0  0  0  0  0  0  0  0
    0.7750    0.7125    0.0000 C   0  0  0  0  0  0  0  0  0  0  0  0
    2.8542    0.7208    0.0000 C   0  0  0  0  0  0  0  0  0  0  0  0
    1.8167    0.7208    0.0000 C   0  0  0  0  0  0  0  0  0  0  0  0
   -0.2625    1.3125    0.0000 C   0  0  0  0  0  0  0  0  0  0  0  0
    0.7750    1.3208    0.0000 C   0  0  0  0  0  0  0  0  0  0  0  0
    0.2542    0.4125    0.0000 C   0  0  0  0  0  0  0  0  0  0  0  0
    0.2542    1.6208    0.0000 C   0  0  0  0  0  0  0  0  0  0  0  0
   -0.2625    0.7125    0.0000 C   0  0  0  0  0  0  0  0  0  0  0  0
    2.3375   -0.1792    0.0000 O   0  0  0  0  0  0  0  0  0  0  0  0
    3.8917    0.7208    0.0000 C   0  0  0  0  0  0  0  0  0  0  0  0
   -1.8208    1.6125    0.0000 O   0  0  0  0  0  0  0  0  0  0  0  0
   -2.8583    1.6125    0.0000 C   0  0  0  0  0  0  0  0  0  0  0  0
   -2.3458    1.3125    0.0000 C   0  0  0  0  0  0  0  0  0  0  0  0
   -0.7833    1.6125    0.0000 C   0  0  0  0  0  0  0  0  0  0  0  0
   -1.3000    1.3125    0.0000 C   0  0  0  0  0  0  0  0  0  0  0  0
   -2.9208    2.2125    0.0000 C   0  0  0  0  0  0  0  0  0  0  0  0
   -3.4083    1.3708    0.0000 C   0  0  0  0  0  0  0  0  0  0  0  0
    4.4167    0.4208    0.0000 C   0  0  0  0  0  0  0  0  0  0  0  0
    3.8917    1.3208    0.0000 C   0  0  0  0  0  0  0  0  0  0  0  0
   -3.8083    1.8208    0.0000 C   0  0  0  0  0  0  0  0  0  0  0  0
   -3.5083    2.3375    0.0000 C   0  0  0  0  0  0  0  0  0  0  0  0
  2  6  1  0
  3  5  1  0
  4  2  1  0
  5  1  1  0
  6  3  1  0
  7 11  2  0
  8  4  1  0
  9  4  2  0
 10  8  2  0
 11  9  1  0
 12  3  1  0
 13  1  1  0
 14 18  1  0
 15 16  1  0
 16 14  1  0
 17  7  1  0
 18 17  1  0
 19 15  1  0
 20 15  1  0
 21 13  1  0
 22 13  1  0
 23 20  1  0
 24 19  1  0
 10  7  1  0
 24 23  1  0
M  END

> <chembl_id>
CHEMBL6712

> <chembl_pref_name>
None

$$$$

     RDKit          2D

 25 26  0  0  1  0  0  0  0  0999 V2000
    0.7167   -1.6917    0.0000 N   0  0  0  0  0  0  0  0  0  0  0  0
    0.5542   -2.5000    0.0000 C   0  0  0  0  0  0  0  0  0  0  0  0
   -0.2250   -2.7667    0.0000 C   0  0  0  0  0  0  0  0  0  0  0  0
    1.4667   -1.3417    0.0000 C   0  0  0  0  0  0  0  0  0  0  0  0
    2.1875   -1.7417    0.0000 C   0  0  0  0  0  0  0  0  0  0  0  0
    1.1750   -3.0417    0.0000 O   0  0  0  0  0  0  0  0  0  0  0  0
   -0.3875   -3.5750    0.0000 C   0  0  0  0  0  0  0  0  0  0  0  0
   -0.8458   -2.2250    0.0000 O   0  0  0  0  0  0  0  0  0  0  0  0
    2.1917   -2.5667    0.0000 O   0  0  0  0  0  0  0  0  0  0  0  0
    7.1750   -1.2417    0.0000 N   0  0  0  0  0  0  0  0  0  0  0  0
    0.1542   -1.0792    0.0000 C   0  0  0  0  0  0  0  0  0  0  0  0
    2.8917   -1.3167    0.0000 O   0  0  0  0  0  0  0  0  0  0  0  0
    1.3625   -0.5250    0.0000 C   0  0  0  0  0  0  0  0  0  0  0  0
    5.7500   -1.2667    0.0000 C   0  0  0  0  0  0  0  0  0  0  0  0
    0.5542   -0.3625    0.0000 C   0  0  0  0  0  0  0  0  0  0  0  0
    6.4667   -1.6667    0.0000 C   0  0  0  0  0  0  0  0  0  0  0  0
   -1.1708   -3.8417    0.0000 C   0  0  0  0  0  0  0  0  0  0  0  0
    7.1625   -0.4167    0.0000 C   0  0  0  0  0  0  0  0  0  0  0  0
    3.6167   -1.7167    0.0000 C   0  0  0  0  0  0  0  0  0  0  0  0
    5.0417   -1.6917    0.0000 C   0  0  0  0  0  0  0  0  0  0  0  0
    5.7292   -0.4417    0.0000 C   0  0  0  0  0  0  0  0  0  0  0  0
    4.3250   -1.2917    0.0000 C   0  0  0  0  0  0  0  0  0  0  0  0
   -1.3250   -4.6500    0.0000 C   0  0  0  0  0  0  0  0  0  0  0  0
   -1.7875   -3.3000    0.0000 C   0  0  0  0  0  0  0  0  0  0  0  0
    6.4375   -0.0167    0.0000 C   0  0  0  0  0  0  0  0  0  0  0  0
  2  1  1  0
  3  2  1  0
  4  1  1  0
  4  5  1  1
  6  2  2  0
  7  3  1  0
  8  3  2  0
  9  5  2  0
 10 16  1  0
 11  1  1  0
 12  5  1  0
 13  4  1  0
 14 20  1  0
 15 11  1  0
 16 14  2  0
 17  7  1  0
 18 25  1  0
 19 12  1  0
 20 22  1  0
 21 14  1  0
 22 19  1  0
 23 17  1  0
 24 17  1  0
 25 21  2  0
 15 13  1  0
 10 18  2  0
M  END

> <chembl_id>
CHEMBL7237

> <chembl_pref_name>
None

$$$$

     RDKit          2D

 21 23  0  0  0  0  0  0  0  0999 V2000
    1.4250   -0.5667    0.0000 C   0  0  0  0  0  0  0  0  0  0  0  0
    2.2042   -1.6500    0.0000 N   0  0  0  0  0  0  0  0  0  0  0  0
    1.4250   -1.3917    0.0000 C   0  0  0  0  0  0  0  0  0  0  0  0
    2.2042   -0.3125    0.0000 N   0  0  0  0  0  0  0  0  0  0  0  0
    0.7042   -0.1542    0.0000 C   0  0  0  0  0  0  0  0  0  0  0  0
    2.6917   -0.9792    0.0000 C   0  0  0  0  0  0  0  0  0  0  0  0
    0.7042   -1.8125    0.0000 N   0  0  0  0  0  0  0  0  0  0  0  0
   -0.0083   -0.5750    0.0000 N   0  0  0  0  0  0  0  0  0  0  0  0
    2.4667   -2.4375    0.0000 C   0  0  0  0  0  0  0  0  0  0  0  0
    0.7042    0.6708    0.0000 N   0  0  0  0  0  0  0  0  0  0  0  0
    3.2667   -2.6042    0.0000 C   0  0  0  0  0  0  0  0  0  0  0  0
   -0.0083   -1.4000    0.0000 C   0  0  0  0  0  0  0  0  0  0  0  0
   -0.0083    1.0750    0.0000 C   0  0  0  0  0  0  0  0  0  0  0  0
    3.8167   -1.9917    0.0000 C   0  0  0  0  0  0  0  0  0  0  0  0
   -0.7250    0.6625    0.0000 O   0  0  0  0  0  0  0  0  0  0  0  0
    3.6042   -1.1917    0.0000 F   0  0  0  0  0  0  0  0  0  0  0  0
    1.4167    1.0833    0.0000 C   0  0  0  0  0  0  0  0  0  0  0  0
    3.5250   -3.3917    0.0000 C   0  0  0  0  0  0  0  0  0  0  0  0
    4.6250   -2.1625    0.0000 C   0  0  0  0  0  0  0  0  0  0  0  0
    4.3292   -3.5625    0.0000 C   0  0  0  0  0  0  0  0  0  0  0  0
    4.8792   -2.9500    0.0000 C   0  0  0  0  0  0  0  0  0  0  0  0
  2  3  1  0
  3  1  1  0
  4  1  1  0
  5  1  2  0
  6  4  2  0
  7  3  2  0
  8  5  1  0
  9  2  1  0
 10  5  1  0
 11  9  1  0
 12  8  2  0
 13 10  1  0
 14 11  1  0
 15 13  2  0
 16 14  1  0
 17 10  1  0
 18 11  2  0
 19 14  2  0
 20 18  1  0
 21 20  2  0
  2  6  1  0
  7 12  1  0
 19 21  1  0
M  END

> <chembl_id>
CHEMBL7238

> <chembl_pref_name>
None

$$$$

     RDKit          2D

 73 74  0  0  1  0  0  0  0  0999 V2000
    8.9625   -5.2167    0.0000 N   0  0  0  0  0  0  0  0  0  0  0  0
    8.2500   -4.7917    0.0000 C   0  0  0  0  0  0  0  0  0  0  0  0
    9.9042   -4.0792    0.0000 C   0  0  0  0  0  0  0  0  0  0  0  0
   -1.0625   -5.1292    0.0000 C   0  0  0  0  0  0  0  0  0  0  0  0
   -0.3375   -4.7167    0.0000 C   0  0  0  0  0  0  0  0  0  0  0  0
    6.1000   -5.1917    0.0000 C   0  0  0  0  0  0  0  0  0  0  0  0
   -1.7833   -4.7042    0.0000 N   0  0  0  0  0  0  0  0  0  0  0  0
    6.8167   -4.7875    0.0000 N   0  0  0  0  0  0  0  0  0  0  0  0
    4.6667   -5.1792    0.0000 N   0  0  0  0  0  0  0  0  0  0  0  0
    7.5292   -5.2042    0.0000 C   0  0  0  0  0  0  0  0  0  0  0  0
    9.7167   -4.8875    0.0000 C   0  0  0  0  0  0  0  0  0  0  0  0
   -2.4958   -5.1125    0.0000 C   0  0  0  0  0  0  0  0  0  0  0  0
    3.9542   -4.7542    0.0000 C   0  0  0  0  0  0  0  0  0  0  0  0
   10.6875   -3.8292    0.0000 N   0  0  0  0  0  0  0  0  0  0  0  0
   14.1167   -0.5792    0.0000 C   0  0  0  0  0  0  0  0  0  0  0  0
   11.6542   -2.7750    0.0000 C   0  0  0  0  0  0  0  0  0  0  0  0
   10.8667   -3.0292    0.0000 N   0  0  0  0  0  0  0  0  0  0  0  0
    1.8042   -5.1542    0.0000 C   0  0  0  0  0  0  0  0  0  0  0  0
    0.3667   -5.1375    0.0000 N   0  0  0  0  0  0  0  0  0  0  0  0
    2.5167   -4.7417    0.0000 N   0  0  0  0  0  0  0  0  0  0  0  0
    5.3875   -4.7667    0.0000 C   0  0  0  0  0  0  0  0  0  0  0  0
    3.2375   -5.1667    0.0000 C   0  0  0  0  0  0  0  0  0  0  0  0
   -3.2083   -4.6917    0.0000 C   0  0  0  0  0  0  0  0  0  0  0  0
    3.2292   -5.9917    0.0000 C   0  0  0  0  0  0  0  0  0  0  0  0
   -3.2000   -3.8667    0.0000 C   0  0  0  0  0  0  0  0  0  0  0  0
   -3.9250   -5.1042    0.0000 N   0  0  0  0  0  0  0  0  0  0  0  0
    1.0875   -4.7292    0.0000 C   0  0  0  0  0  0  0  0  0  0  0  0
    3.9417   -6.4125    0.0000 C   0  0  0  0  0  0  0  0  0  0  0  0
   -2.4833   -3.4542    0.0000 C   0  0  0  0  0  0  0  0  0  0  0  0
   13.5000   -1.1292    0.0000 C   0  0  0  0  0  0  0  0  0  0  0  0
   -3.9333   -5.9292    0.0000 C   0  0  0  0  0  0  0  0  0  0  0  0
   12.2667   -2.2250    0.0000 C   0  0  0  0  0  0  0  0  0  0  0  0
    8.2542   -3.9667    0.0000 O   0  0  0  0  0  0  0  0  0  0  0  0
    9.2917   -3.5167    0.0000 O   0  0  0  0  0  0  0  0  0  0  0  0
    1.8250   -2.6667    0.0000 C   0  0  0  0  0  0  0  0  0  0  0  0
   -0.3333   -3.8917    0.0000 O   0  0  0  0  0  0  0  0  0  0  0  0
    6.0917   -6.0167    0.0000 O   0  0  0  0  0  0  0  0  0  0  0  0
   12.1292   -3.5542    0.0000 O   0  0  0  0  0  0  0  0  0  0  0  0
   -2.5000   -5.9417    0.0000 O   0  0  0  0  0  0  0  0  0  0  0  0
    3.9625   -3.9292    0.0000 O   0  0  0  0  0  0  0  0  0  0  0  0
    1.7917   -5.9792    0.0000 O   0  0  0  0  0  0  0  0  0  0  0  0
   -1.0708   -5.9542    0.0000 C   0  0  0  0  0  0  0  0  0  0  0  0
   -2.4750   -2.6292    0.0000 O   0  0  0  0  0  0  0  0  0  0  0  0
    3.9292   -7.2417    0.0000 O   0  0  0  0  0  0  0  0  0  0  0  0
   -4.6583   -6.3375    0.0000 O   0  0  0  0  0  0  0  0  0  0  0  0
    2.5417   -2.2667    0.0000 O   0  0  0  0  0  0  0  0  0  0  0  0
   12.7125   -0.8750    0.0000 C   0  0  0  0  0  0  0  0  0  0  0  0
   13.6667   -1.9417    0.0000 C   0  0  0  0  0  0  0  0  0  0  0  0
   12.1000   -1.4167    0.0000 C   0  0  0  0  0  0  0  0  0  0  0  0
   13.0500   -2.4917    0.0000 C   0  0  0  0  0  0  0  0  0  0  0  0
   14.4875   -1.3167    0.0000 F   0  0  0  0  0  0  0  0  0  0  0  0
   14.9000   -0.8417    0.0000 F   0  0  0  0  0  0  0  0  0  0  0  0
   13.9500    0.2250    0.0000 F   0  0  0  0  0  0  0  0  0  0  0  0
    1.1000   -3.9042    0.0000 C   0  0  0  0  0  0  0  0  0  0  0  0
    7.5250   -6.0292    0.0000 C   0  0  0  0  0  0  0  0  0  0  0  0
    9.0417   -6.0375    0.0000 C   0  0  0  0  0  0  0  0  0  0  0  0
    5.3917   -3.9417    0.0000 C   0  0  0  0  0  0  0  0  0  0  0  0
    1.8167   -3.4917    0.0000 C   0  0  0  0  0  0  0  0  0  0  0  0
    4.6625   -6.0042    0.0000 O   0  0  0  0  0  0  0  0  0  0  0  0
   -1.7708   -3.8792    0.0000 O   0  0  0  0  0  0  0  0  0  0  0  0
    1.1125   -2.2542    0.0000 O   0  0  0  0  0  0  0  0  0  0  0  0
   10.2667   -5.5042    0.0000 C   0  0  0  0  0  0  0  0  0  0  0  0
   -0.3583   -6.3750    0.0000 O   0  0  0  0  0  0  0  0  0  0  0  0
   10.2542   -2.4667    0.0000 C   0  0  0  0  0  0  0  0  0  0  0  0
    9.8500   -6.2167    0.0000 C   0  0  0  0  0  0  0  0  0  0  0  0
   -3.2208   -6.3417    0.0000 C   0  0  0  0  0  0  0  0  0  0  0  0
   -1.7958   -6.3625    0.0000 C   0  0  0  0  0  0  0  0  0  0  0  0
    6.8042   -6.4375    0.0000 C   0  0  0  0  0  0  0  0  0  0  0  0
    8.2375   -6.4500    0.0000 C   0  0  0  0  0  0  0  0  0  0  0  0
    6.1167   -3.5375    0.0000 C   0  0  0  0  0  0  0  0  0  0  0  0
    4.6792   -3.5250    0.0000 C   0  0  0  0  0  0  0  0  0  0  0  0
   10.4375   -1.6625    0.0000 C   0  0  0  0  0  0  0  0  0  0  0  0
    9.8292   -1.1042    0.0000 C   0  0  0  0  0  0  0  0  0  0  0  0
  2  1  1  0
 11  3  1  1
  4  5  1  0
  5 19  1  0
  6  8  1  0
  4  7  1  6
 10  8  1  6
 21  9  1  1
 10  2  1  0
 11  1  1  0
 12  7  1  0
 13  9  1  0
 14  3  1  0
 15 30  1  0
 16 17  1  0
 17 14  1  0
 18 20  1  0
 27 19  1  1
 22 20  1  6
 21  6  1  0
 22 13  1  0
 23 12  1  0
 22 24  1  0
 23 25  1  1
 26 23  1  0
 27 18  1  0
 28 24  1  0
 29 25  1  0
 30 48  2  0
 31 26  1  0
 32 16  1  0
 33  2  2  0
 34  3  2  0
 35 58  1  0
 36  5  2  0
 37  6  2  0
 38 16  2  0
 39 12  2  0
 40 13  2  0
 41 18  2  0
  4 42  1  0
 43 29  2  0
 44 28  2  0
 45 31  2  0
 46 35  2  0
 47 49  2  0
 48 50  1  0
 49 32  1  0
 50 32  2  0
 51 15  1  0
 52 15  1  0
 53 15  1  0
 27 54  1  0
 10 55  1  0
 56  1  1  0
 21 57  1  0
 58 54  1  0
 59 28  1  0
 60 29  1  0
 61 35  1  0
 11 62  1  0
 42 63  1  6
 64 17  1  0
 65 56  1  0
 66 31  1  0
 67 42  1  0
 68 55  1  0
 69 55  1  0
 70 57  1  0
 71 57  1  0
 72 64  1  0
 73 72  1  0
 62 65  1  0
 47 30  1  0
M  END

> <chembl_id>
CHEMBL412607

> <chembl_pref_name>
None

$$$$

     RDKit          2D

 21 23  0  0  0  0  0  0  0  0999 V2000
    4.3875   -1.3542    0.0000 C   0  0  0  0  0  0  0  0  0  0  0  0
    3.6167   -1.0375    0.0000 N   0  0  0  0  0  0  0  0  0  0  0  0
    4.9167   -0.7292    0.0000 C   0  0  0  0  0  0  0  0  0  0  0  0
    2.7542   -2.2500    0.0000 C   0  0  0  0  0  0  0  0  0  0  0  0
    4.4917   -0.0292    0.0000 N   0  0  0  0  0  0  0  0  0  0  0  0
    3.3000   -2.8625    0.0000 C   0  0  0  0  0  0  0  0  0  0  0  0
    2.9000   -1.4292    0.0000 C   0  0  0  0  0  0  0  0  0  0  0  0
    4.1125   -2.8125    0.0000 N   0  0  0  0  0  0  0  0  0  0  0  0
    3.6875   -0.2167    0.0000 C   0  0  0  0  0  0  0  0  0  0  0  0
    4.5917   -2.1417    0.0000 C   0  0  0  0  0  0  0  0  0  0  0  0
    5.7417   -0.7792    0.0000 C   0  0  0  0  0  0  0  0  0  0  0  0
    1.9792   -2.5375    0.0000 C   0  0  0  0  0  0  0  0  0  0  0  0
    2.2542   -0.9042    0.0000 C   0  0  0  0  0  0  0  0  0  0  0  0
    2.9875   -3.6292    0.0000 O   0  0  0  0  0  0  0  0  0  0  0  0
    6.2042   -0.0917    0.0000 O   0  0  0  0  0  0  0  0  0  0  0  0
    1.3417   -2.0125    0.0000 C   0  0  0  0  0  0  0  0  0  0  0  0
    1.4792   -1.1917    0.0000 C   0  0  0  0  0  0  0  0  0  0  0  0
    6.1125   -1.5250    0.0000 O   0  0  0  0  0  0  0  0  0  0  0  0
    4.5042   -3.5417    0.0000 C   0  0  0  0  0  0  0  0  0  0  0  0
    0.5750   -2.2917    0.0000 Cl  0  0  0  0  0  0  0  0  0  0  0  0
    6.9292   -1.5750    0.0000 C   0  0  0  0  0  0  0  0  0  0  0  0
  2  1  1  0
  3  1  2  0
  4  7  2  0
  5  3  1  0
  6  8  1  0
  7  2  1  0
  8 10  1  0
  9  2  1  0
 10  1  1  0
 11  3  1  0
 12  4  1  0
 13  7  1  0
 14  6  2  0
 15 11  2  0
 16 17  1  0
 17 13  2  0
 18 11  1  0
 19  8  1  0
 20 16  1  0
 21 18  1  0
  5  9  2  0
  4  6  1  0
 16 12  2  0
M  END

> <chembl_id>
CHEMBL266943

> <chembl_pref_name>
None

$$$$

     RDKit          2D

 20 22  0  0  0  0  0  0  0  0999 V2000
    4.3875   -1.3542    0.0000 C   0  0  0  0  0  0  0  0  0  0  0  0
    4.9167   -0.7292    0.0000 C   0  0  0  0  0  0  0  0  0  0  0  0
    3.6167   -1.0375    0.0000 N   0  0  0  0  0  0  0  0  0  0  0  0
    4.4917   -0.0292    0.0000 N   0  0  0  0  0  0  0  0  0  0  0  0
    3.3000   -2.8625    0.0000 C   0  0  0  0  0  0  0  0  0  0  0  0
    2.7542   -2.2500    0.0000 C   0  0  0  0  0  0  0  0  0  0  0  0
    4.1125   -2.8125    0.0000 N   0  0  0  0  0  0  0  0  0  0  0  0
    3.6875   -0.2167    0.0000 C   0  0  0  0  0  0  0  0  0  0  0  0
    2.9000   -1.4292    0.0000 C   0  0  0  0  0  0  0  0  0  0  0  0
    4.5917   -2.1417    0.0000 C   0  0  0  0  0  0  0  0  0  0  0  0
    5.7417   -0.7792    0.0000 C   0  0  0  0  0  0  0  0  0  0  0  0
    2.9875   -3.6292    0.0000 O   0  0  0  0  0  0  0  0  0  0  0  0
    6.2042   -0.0917    0.0000 O   0  0  0  0  0  0  0  0  0  0  0  0
    1.9792   -2.5375    0.0000 C   0  0  0  0  0  0  0  0  0  0  0  0
    6.1125   -1.5250    0.0000 O   0  0  0  0  0  0  0  0  0  0  0  0
    4.5042   -3.5417    0.0000 C   0  0  0  0  0  0  0  0  0  0  0  0
    2.2542   -0.9042    0.0000 C   0  0  0  0  0  0  0  0  0  0  0  0
    6.9292   -1.5750    0.0000 C   0  0  0  0  0  0  0  0  0  0  0  0
    1.3417   -2.0125    0.0000 C   0  0  0  0  0  0  0  0  0  0  0  0
    1.4792   -1.1917    0.0000 C   0  0  0  0  0  0  0  0  0  0  0  0
  2  1  2  0
  3  1  1  0
  4  2  1  0
  5  7  1  0
  6  9  2  0
  7 10  1  0
  8  3  1  0
  9  3  1  0
 10  1  1  0
 11  2  1  0
 12  5  2  0
 13 11  2  0
 14  6  1  0
 15 11  1  0
 16  7  1  0
 17  9  1  0
 18 15  1  0
 19 20  1  0
 20 17  2  0
  4  8  2  0
  6  5  1  0
 19 14  2  0
M  END

> <chembl_id>
CHEMBL7009

> <chembl_pref_name>
None

$$$$

     RDKit          2D

 25 26  0  0  0  0  0  0  0  0999 V2000
    6.9917   -3.3375    0.0000 Cl  0  0  0  0  0  0  0  0  0  0  0  0
    2.7667   -3.3000    0.0000 C   0  0  0  0  0  0  0  0  0  0  0  0
    2.7667   -2.7000    0.0000 C   0  0  0  0  0  0  0  0  0  0  0  0
    3.2792   -2.3917    0.0000 C   0  0  0  0  0  0  0  0  0  0  0  0
    3.2792   -3.6000    0.0000 C   0  0  0  0  0  0  0  0  0  0  0  0
    3.8042   -3.3000    0.0000 C   0  0  0  0  0  0  0  0  0  0  0  0
    3.8042   -2.6917    0.0000 C   0  0  0  0  0  0  0  0  0  0  0  0
    2.2500   -3.6000    0.0000 O   0  0  0  0  0  0  0  0  0  0  0  0
    2.2500   -2.4000    0.0000 C   0  0  0  0  0  0  0  0  0  0  0  0
    1.7292   -3.3000    0.0000 C   0  0  0  0  0  0  0  0  0  0  0  0
    1.7292   -2.6917    0.0000 C   0  0  0  0  0  0  0  0  0  0  0  0
    3.2792   -1.7917    0.0000 C   0  0  0  0  0  0  0  0  0  0  0  0
    4.3792   -3.4875    0.0000 O   0  0  0  0  0  0  0  0  0  0  0  0
    3.8000   -1.4917    0.0000 N   0  0  0  0  0  0  0  0  0  0  0  0
    4.3792   -2.5042    0.0000 C   0  0  0  0  0  0  0  0  0  0  0  0
    4.7292   -2.9917    0.0000 C   0  0  0  0  0  0  0  0  0  0  0  0
    1.2042   -3.6000    0.0000 O   0  0  0  0  0  0  0  0  0  0  0  0
    3.2875   -4.1917    0.0000 O   0  0  0  0  0  0  0  0  0  0  0  0
    4.3167   -1.1917    0.0000 C   0  0  0  0  0  0  0  0  0  0  0  0
    4.3167   -1.7917    0.0000 C   0  0  0  0  0  0  0  0  0  0  0  0
    4.8250   -0.2792    0.0000 O   0  0  0  0  0  0  0  0  0  0  0  0
    5.3542   -1.7875    0.0000 O   0  0  0  0  0  0  0  0  0  0  0  0
    4.8375   -1.4792    0.0000 C   0  0  0  0  0  0  0  0  0  0  0  0
    4.3042   -0.5917    0.0000 C   0  0  0  0  0  0  0  0  0  0  0  0
    2.7667   -4.5000    0.0000 C   0  0  0  0  0  0  0  0  0  0  0  0
  3  2  2  0
  4  3  1  0
  5  2  1  0
  6  5  2  0
  7  6  1  0
  8  2  1  0
  9  3  1  0
 10  8  1  0
 11 10  1  0
 12  4  1  0
 13  6  1  0
 14 12  1  0
 15  7  1  0
 16 13  1  0
 17 10  2  0
 18  5  1  0
 19 14  1  0
 20 14  1  0
 21 24  1  0
 22 23  1  0
 23 20  1  0
 24 19  1  0
 25 18  1  0
  9 11  2  0
  4  7  2  0
 16 15  2  0
M  END

> <chembl_id>
CHEMBL428674

> <chembl_pref_name>
None

$$$$

     RDKit          2D

 26 28  0  0  0  0  0  0  0  0999 V2000
    3.9042   -4.3125    0.0000 N   0  0  0  0  0  0  0  0  0  0  0  0
    3.3792   -4.0042    0.0000 C   0  0  0  0  0  0  0  0  0  0  0  0
    2.8667   -4.3125    0.0000 N   0  0  0  0  0  0  0  0  0  0  0  0
    3.9042   -4.9167    0.0000 C   0  0  0  0  0  0  0  0  0  0  0  0
    3.3792   -5.2167    0.0000 N   0  0  0  0  0  0  0  0  0  0  0  0
    2.8667   -4.9167    0.0000 C   0  0  0  0  0  0  0  0  0  0  0  0
    4.4167   -4.0042    0.0000 C   0  0  0  0  0  0  0  0  0  0  0  0
    4.4125   -3.4125    0.0000 C   0  0  0  0  0  0  0  0  0  0  0  0
    5.9500   -0.7042    0.0000 C   0  0  0  0  0  0  0  0  0  0  0  0
    3.3792   -3.4125    0.0000 N   0  0  0  0  0  0  0  0  0  0  0  0
    5.4292   -0.4042    0.0000 C   0  0  0  0  0  0  0  0  0  0  0  0
    5.9542   -1.3042    0.0000 C   0  0  0  0  0  0  0  0  0  0  0  0
    2.3417   -5.2167    0.0000 N   0  0  0  0  0  0  0  0  0  0  0  0
    4.9042   -0.7167    0.0000 C   0  0  0  0  0  0  0  0  0  0  0  0
    4.9292   -3.1042    0.0000 C   0  0  0  0  0  0  0  0  0  0  0  0
    4.9250   -2.5042    0.0000 O   0  0  0  0  0  0  0  0  0  0  0  0
    4.5042   -4.9167    0.0000 C   0  0  0  0  0  0  0  0  0  0  0  0
    4.0542   -5.4917    0.0000 C   0  0  0  0  0  0  0  0  0  0  0  0
    5.4375   -1.6042    0.0000 C   0  0  0  0  0  0  0  0  0  0  0  0
    6.4667   -0.4000    0.0000 Cl  0  0  0  0  0  0  0  0  0  0  0  0
    5.4167    0.1958    0.0000 Cl  0  0  0  0  0  0  0  0  0  0  0  0
    5.4417   -2.2042    0.0000 C   0  0  0  0  0  0  0  0  0  0  0  0
    4.9167   -1.3125    0.0000 C   0  0  0  0  0  0  0  0  0  0  0  0
    4.9417   -4.3042    0.0000 C   0  0  0  0  0  0  0  0  0  0  0  0
    5.4542   -4.0042    0.0000 C   0  0  0  0  0  0  0  0  0  0  0  0
    5.4542   -3.4042    0.0000 C   0  0  0  0  0  0  0  0  0  0  0  0
  2  1  1  0
  3  2  2  0
  4  1  1  0
  5  4  1  0
  6  5  2  0
  7  1  1  0
  8  7  1  0
  9 12  1  0
 10  2  1  0
 11 14  1  0
 12 19  2  0
 13  6  1  0
 14 23  2  0
 15  8  2  0
 16 15  1  0
 17  4  1  0
 18  4  1  0
 19 22  1  0
 20  9  1  0
 21 11  1  0
 22 16  1  0
 23 19  1  0
 24  7  2  0
 25 24  1  0
 26 25  2  0
  3  6  1  0
 15 26  1  0
  9 11  2  0
M  END

> <chembl_id>
CHEMBL269704

> <chembl_pref_name>
None

$$$$

     RDKit          2D

 20 21  0  0  0  0  0  0  0  0999 V2000
    4.9161   -1.9890    0.0000 C   0  0  0  0  0  0  0  0  0  0  0  0
    4.9117   -2.9890    0.0000 C   0  0  0  0  0  0  0  0  0  0  0  0
    5.9117   -2.9934    0.0000 C   0  0  0  0  0  0  0  0  0  0  0  0
    3.9117   -2.9846    0.0000 C   0  0  0  0  0  0  0  0  0  0  0  0
    4.9073   -3.9890    0.0000 C   0  0  0  0  0  0  0  0  0  0  0  0
    5.7771   -4.4928    0.0000 C   0  0  0  0  0  0  0  0  0  0  0  0
    5.7727   -5.4929    0.0000 C   0  0  0  0  0  0  0  0  0  0  0  0
    4.9074   -5.9941    0.0000 C   0  0  0  0  0  0  0  0  0  0  0  0
    4.0376   -5.4903    0.0000 C   0  0  0  0  0  0  0  0  0  0  0  0
    4.0331   -4.4851    0.0000 C   0  0  0  0  0  0  0  0  0  0  0  0
    4.9074   -6.9941    0.0000 N   0  0  0  0  0  0  0  0  0  0  0  0
    4.0399   -7.5018    0.0000 C   0  0  0  0  0  0  0  0  0  0  0  0
    3.1724   -7.0044    0.0000 N   0  0  0  0  0  0  0  0  0  0  0  0
    4.0399   -8.5070    0.0000 N   0  0  0  0  0  0  0  0  0  0  0  0
    4.9074   -9.0045    0.0000 C   0  0  0  0  0  0  0  0  0  0  0  0
    4.9074  -10.0045    0.0000 N   0  0  0  0  0  0  0  0  0  0  0  0
    5.7749   -8.5070    0.0000 N   0  0  0  0  0  0  0  0  0  0  0  0
    5.7749   -7.5018    0.0000 C   0  0  0  0  0  0  0  0  0  0  0  0
    6.1206   -6.5635    0.0000 C   0  0  0  0  0  0  0  0  0  0  0  0
    6.7594   -7.6774    0.0000 C   0  0  0  0  0  0  0  0  0  0  0  0
  1  2  1  0
  2  3  1  0
  2  4  1  0
  2  5  1  0
  5 10  2  0
  5  6  1  0
  6  7  2  0
  7  8  1  0
  8  9  2  0
  9 10  1  0
  8 11  1  0
 11 18  1  0
 11 12  1  0
 12 13  1  0
 12 14  2  0
 14 15  1  0
 15 16  1  0
 15 17  2  0
 17 18  1  0
 18 19  1  0
 18 20  1  0
M  END

> <chembl_id>
CHEMBL6661

> <chembl_pref_name>
None

$$$$

     RDKit          2D

 31 33  0  0  0  0  0  0  0  0999 V2000
    3.3750    0.4208    0.0000 N   0  0  0  0  0  0  0  0  0  0  0  0
    1.2917    0.4125    0.0000 O   0  0  0  0  0  0  0  0  0  0  0  0
    2.3375    0.4208    0.0000 C   0  0  0  0  0  0  0  0  0  0  0  0
    0.7750    0.7125    0.0000 C   0  0  0  0  0  0  0  0  0  0  0  0
    2.8542    0.7208    0.0000 C   0  0  0  0  0  0  0  0  0  0  0  0
    6.4917   -0.1792    0.0000 C   0  0  0  0  0  0  0  0  0  0  0  0
    5.4542    0.4250    0.0000 C   0  0  0  0  0  0  0  0  0  0  0  0
    1.8167    0.7208    0.0000 C   0  0  0  0  0  0  0  0  0  0  0  0
    7.0042   -0.4792    0.0000 F   0  0  0  0  0  0  0  0  0  0  0  0
   -0.2625    1.3125    0.0000 C   0  0  0  0  0  0  0  0  0  0  0  0
    4.9292    0.7250    0.0000 C   0  0  0  0  0  0  0  0  0  0  0  0
    0.7750    1.3208    0.0000 C   0  0  0  0  0  0  0  0  0  0  0  0
    0.2542    0.4125    0.0000 C   0  0  0  0  0  0  0  0  0  0  0  0
    6.4875    0.4333    0.0000 C   0  0  0  0  0  0  0  0  0  0  0  0
    5.9667   -0.4792    0.0000 C   0  0  0  0  0  0  0  0  0  0  0  0
    5.9667    0.7250    0.0000 C   0  0  0  0  0  0  0  0  0  0  0  0
    5.4542   -0.1792    0.0000 C   0  0  0  0  0  0  0  0  0  0  0  0
    0.2542    1.6208    0.0000 C   0  0  0  0  0  0  0  0  0  0  0  0
   -0.2625    0.7125    0.0000 C   0  0  0  0  0  0  0  0  0  0  0  0
    2.3375   -0.1792    0.0000 O   0  0  0  0  0  0  0  0  0  0  0  0
    4.4167    0.4208    0.0000 C   0  0  0  0  0  0  0  0  0  0  0  0
    3.8917    0.7208    0.0000 C   0  0  0  0  0  0  0  0  0  0  0  0
   -1.8208    1.6125    0.0000 O   0  0  0  0  0  0  0  0  0  0  0  0
   -3.6000    2.0375    0.0000 C   0  0  0  0  0  0  0  0  0  0  0  0
   -2.8583    1.6125    0.0000 C   0  0  0  0  0  0  0  0  0  0  0  0
   -2.3458    1.3125    0.0000 C   0  0  0  0  0  0  0  0  0  0  0  0
   -0.7833    1.6125    0.0000 C   0  0  0  0  0  0  0  0  0  0  0  0
   -3.4458    1.4583    0.0000 C   0  0  0  0  0  0  0  0  0  0  0  0
   -3.0208    2.1958    0.0000 C   0  0  0  0  0  0  0  0  0  0  0  0
   -1.3000    1.3125    0.0000 C   0  0  0  0  0  0  0  0  0  0  0  0
    3.8917    1.3208    0.0000 C   0  0  0  0  0  0  0  0  0  0  0  0
  2  8  1  0
  3  5  1  0
  4  2  1  0
  5  1  1  0
  6 15  2  0
  7 11  1  0
  8  3  1  0
  9  6  1  0
 10 19  2  0
 11 21  1  0
 12  4  1  0
 13  4  2  0
 14 16  2  0
 15 17  1  0
 16  7  1  0
 17  7  2  0
 18 12  2  0
 19 13  1  0
 20  3  1  0
 21 22  1  0
 22  1  1  0
 23 30  1  0
 24 29  1  0
 25 26  1  0
 26 23  1  0
 27 10  1  0
 28 25  1  0
 29 25  1  0
 30 27  1  0
 31 22  1  0
 14  6  1  0
 10 18  1  0
 24 28  1  0
M  END

> <chembl_id>
CHEMBL6749

> <chembl_pref_name>
None

$$$$

     RDKit          2D

 14 15  0  0  0  0  0  0  0  0999 V2000
   -4.6530  -17.1375    0.0000 C   0  0  0  0  0  0  0  0  0  0  0  0
   -4.6543  -17.9633    0.0000 C   0  0  0  0  0  0  0  0  0  0  0  0
   -3.9428  -18.3754    0.0000 C   0  0  0  0  0  0  0  0  0  0  0  0
   -3.9447  -16.7256    0.0000 N   0  0  0  0  0  0  0  0  0  0  0  0
   -3.2282  -17.1335    0.0000 C   0  0  0  0  0  0  0  0  0  0  0  0
   -3.2271  -17.9591    0.0000 C   0  0  0  0  0  0  0  0  0  0  0  0
   -2.5127  -18.3692    0.0000 C   0  0  0  0  0  0  0  0  0  0  0  0
   -1.7988  -17.9549    0.0000 C   0  0  0  0  0  0  0  0  0  0  0  0
   -1.8038  -17.1261    0.0000 C   0  0  0  0  0  0  0  0  0  0  0  0
   -2.5188  -16.7198    0.0000 C   0  0  0  0  0  0  0  0  0  0  0  0
   -2.5235  -15.8965    0.0000 S   0  0  0  0  0  0  0  0  0  0  0  0
   -2.5293  -15.0703    0.0000 N   0  0  0  0  0  0  0  0  0  0  0  0
   -1.7003  -15.8912    0.0000 O   0  0  0  0  0  0  0  0  0  0  0  0
   -3.3467  -15.9046    0.0000 O   0  0  0  0  0  0  0  0  0  0  0  0
  6  7  1  0
  1  2  2  0
  7  8  2  0
  5  4  2  0
  8  9  1  0
  4  1  1  0
  9 10  2  0
 10  5  1  0
 10 11  1  0
  2  3  1  0
 11 12  1  0
  5  6  1  0
 11 13  2  0
  3  6  2  0
 11 14  2  0
M  END

> <chembl_id>
CHEMBL268809

> <chembl_pref_name>
None

$$$$

     RDKit          2D

 23 24  0  0  0  0  0  0  0  0999 V2000
    2.6542    1.5000    0.0000 C   0  0  0  0  0  0  0  0  0  0  0  0
    2.6542    0.6750    0.0000 N   0  0  0  0  0  0  0  0  0  0  0  0
    3.3662    0.2667    0.0000 S   0  0  0  0  0  0  0  0  0  0  0  0
    3.3662    1.9167    0.0000 C   0  0  0  0  0  0  0  0  0  0  0  0
    4.0782    1.5000    0.0000 C   0  0  0  0  0  0  0  0  0  0  0  0
    4.0782    0.6785    0.0000 C   0  0  0  0  0  0  0  0  0  0  0  0
    4.8594    0.4246    0.0000 S   0  0  0  0  0  0  0  0  0  0  0  0
    5.3423    1.0892    0.0000 C   0  0  0  0  0  0  0  0  0  0  0  0
    4.8595    1.7537    0.0000 C   0  0  0  0  0  0  0  0  0  0  0  0
    1.9403    0.2615    0.0000 C   0  0  0  0  0  0  0  0  0  0  0  0
    1.2252    0.6729    0.0000 C   0  0  0  0  0  0  0  0  0  0  0  0
    0.5114    0.2594    0.0000 C   0  0  0  0  0  0  0  0  0  0  0  0
   -0.2037    0.6709    0.0000 O   0  0  0  0  0  0  0  0  0  0  0  0
   -0.9176    0.2573    0.0000 C   0  0  0  0  0  0  0  0  0  0  0  0
    6.1673    1.0892    0.0000 S   0  0  0  0  0  0  0  0  0  0  0  0
    6.5798    0.3747    0.0000 N   0  0  0  0  0  0  0  0  0  0  0  0
    5.9500    1.8917    0.0000 O   0  0  0  0  0  0  0  0  0  0  0  0
    6.9625    1.3083    0.0000 O   0  0  0  0  0  0  0  0  0  0  0  0
    2.7750   -0.3167    0.0000 O   0  0  0  0  0  0  0  0  0  0  0  0
    3.9458   -0.3167    0.0000 O   0  0  0  0  0  0  0  0  0  0  0  0
    3.3662    2.7417    0.0000 N   0  0  0  0  0  0  0  0  0  0  0  0
    4.0807    3.1542    0.0000 C   0  0  0  0  0  0  0  0  0  0  0  0
    4.0807    3.9792    0.0000 C   0  0  0  0  0  0  0  0  0  0  0  0
 10 11  1  0
 11 12  1  0
  1  2  1  0
 12 13  1  0
  1  4  1  0
 13 14  1  0
  2  3  1  0
  8 15  1  0
  3  6  1  0
 15 16  1  0
  6  7  1  0
 15 17  2  0
  7  8  1  0
 15 18  2  0
  8  9  2  0
  3 19  2  0
  9  5  1  0
  3 20  2  0
  5  4  1  0
  4 21  1  0
  2 10  1  0
 21 22  1  0
  5  6  2  0
 22 23  1  0
M  END

> <chembl_id>
CHEMBL6750

> <chembl_pref_name>
None

$$$$

     RDKit          2D

 22 25  0  0  0  0  0  0  0  0999 V2000
    1.4250   -0.5667    0.0000 C   0  0  0  0  0  0  0  0  0  0  0  0
    2.2042   -1.6500    0.0000 N   0  0  0  0  0  0  0  0  0  0  0  0
    1.4250   -1.3917    0.0000 C   0  0  0  0  0  0  0  0  0  0  0  0
    2.2042   -0.3125    0.0000 N   0  0  0  0  0  0  0  0  0  0  0  0
    0.7042   -0.1542    0.0000 C   0  0  0  0  0  0  0  0  0  0  0  0
    2.6917   -0.9792    0.0000 C   0  0  0  0  0  0  0  0  0  0  0  0
    0.7042   -1.8125    0.0000 N   0  0  0  0  0  0  0  0  0  0  0  0
    2.4667   -2.4375    0.0000 C   0  0  0  0  0  0  0  0  0  0  0  0
   -0.0083   -0.5750    0.0000 N   0  0  0  0  0  0  0  0  0  0  0  0
    3.2667   -2.6042    0.0000 C   0  0  0  0  0  0  0  0  0  0  0  0
    0.7042    0.6708    0.0000 N   0  0  0  0  0  0  0  0  0  0  0  0
   -0.0083   -1.4000    0.0000 C   0  0  0  0  0  0  0  0  0  0  0  0
    3.8167   -1.9917    0.0000 C   0  0  0  0  0  0  0  0  0  0  0  0
    3.6042   -1.1917    0.0000 F   0  0  0  0  0  0  0  0  0  0  0  0
   -0.0083    1.0750    0.0000 C   0  0  0  0  0  0  0  0  0  0  0  0
    3.5250   -3.3917    0.0000 C   0  0  0  0  0  0  0  0  0  0  0  0
   -1.0250    1.6583    0.0000 C   0  0  0  0  0  0  0  0  0  0  0  0
    4.6250   -2.1625    0.0000 C   0  0  0  0  0  0  0  0  0  0  0  0
   -0.2333    1.8708    0.0000 C   0  0  0  0  0  0  0  0  0  0  0  0
   -0.8083    0.8625    0.0000 C   0  0  0  0  0  0  0  0  0  0  0  0
    4.3292   -3.5625    0.0000 C   0  0  0  0  0  0  0  0  0  0  0  0
    4.8792   -2.9500    0.0000 C   0  0  0  0  0  0  0  0  0  0  0  0
  2  3  1  0
  3  1  1  0
  4  1  1  0
  5  1  2  0
  6  4  2  0
  7  3  2  0
  8  2  1  0
  9  5  1  0
 10  8  1  0
 11  5  1  0
 12  9  2  0
 13 10  1  0
 14 13  1  0
 15 11  1  0
 16 10  2  0
 17 20  1  0
 18 13  2  0
 19 15  1  0
 20 15  1  0
 21 16  1  0
 22 21  2  0
  2  6  1  0
  7 12  1  0
 19 17  1  0
 18 22  1  0
M  END

> <chembl_id>
CHEMBL266732

> <chembl_pref_name>
None

$$$$

     RDKit          2D

 32 34  0  0  0  0  0  0  0  0999 V2000
    3.9042   -4.3125    0.0000 N   0  0  0  0  0  0  0  0  0  0  0  0
    3.3792   -4.0042    0.0000 C   0  0  0  0  0  0  0  0  0  0  0  0
    2.8667   -4.3125    0.0000 N   0  0  0  0  0  0  0  0  0  0  0  0
    3.9042   -4.9167    0.0000 C   0  0  0  0  0  0  0  0  0  0  0  0
    3.3792   -5.2167    0.0000 N   0  0  0  0  0  0  0  0  0  0  0  0
    2.8667   -4.9167    0.0000 C   0  0  0  0  0  0  0  0  0  0  0  0
    4.4167   -4.0042    0.0000 C   0  0  0  0  0  0  0  0  0  0  0  0
    7.4667    1.4208    0.0000 C   0  0  0  0  0  0  0  0  0  0  0  0
    6.9542    1.1208    0.0000 C   0  0  0  0  0  0  0  0  0  0  0  0
    4.4125   -3.4125    0.0000 C   0  0  0  0  0  0  0  0  0  0  0  0
    3.3792   -3.4125    0.0000 N   0  0  0  0  0  0  0  0  0  0  0  0
    6.9667    0.5208    0.0000 C   0  0  0  0  0  0  0  0  0  0  0  0
    2.3417   -5.2167    0.0000 N   0  0  0  0  0  0  0  0  0  0  0  0
    7.9417    1.7000    0.0000 F   0  0  0  0  0  0  0  0  0  0  0  0
    8.0625    1.2083    0.0000 F   0  0  0  0  0  0  0  0  0  0  0  0
    7.5667    2.0458    0.0000 F   0  0  0  0  0  0  0  0  0  0  0  0
    4.5042   -4.9167    0.0000 C   0  0  0  0  0  0  0  0  0  0  0  0
    4.0542   -5.4917    0.0000 C   0  0  0  0  0  0  0  0  0  0  0  0
    4.9292   -3.1042    0.0000 C   0  0  0  0  0  0  0  0  0  0  0  0
    6.4500    0.2125    0.0000 C   0  0  0  0  0  0  0  0  0  0  0  0
    4.9417   -4.3042    0.0000 C   0  0  0  0  0  0  0  0  0  0  0  0
    4.9250   -2.5042    0.0000 O   0  0  0  0  0  0  0  0  0  0  0  0
    6.4542   -0.3875    0.0000 O   0  0  0  0  0  0  0  0  0  0  0  0
    6.4292    1.4083    0.0000 C   0  0  0  0  0  0  0  0  0  0  0  0
    5.4542   -4.0042    0.0000 C   0  0  0  0  0  0  0  0  0  0  0  0
    5.9167    1.1000    0.0000 C   0  0  0  0  0  0  0  0  0  0  0  0
    5.4542   -3.4042    0.0000 C   0  0  0  0  0  0  0  0  0  0  0  0
    5.9292    0.5000    0.0000 C   0  0  0  0  0  0  0  0  0  0  0  0
    5.9417   -0.6917    0.0000 C   0  0  0  0  0  0  0  0  0  0  0  0
    5.4375   -2.2000    0.0000 C   0  0  0  0  0  0  0  0  0  0  0  0
    5.4292   -1.6000    0.0000 C   0  0  0  0  0  0  0  0  0  0  0  0
    5.9417   -1.2917    0.0000 C   0  0  0  0  0  0  0  0  0  0  0  0
  2  1  1  0
  3  2  2  0
  4  1  1  0
  5  4  1  0
  6  5  2  0
  7  1  1  0
  8  9  1  0
  9 12  1  0
 10  7  1  0
 11  2  1  0
 12 20  2  0
 13  6  1  0
 14  8  1  0
 15  8  1  0
 16  8  1  0
 17  4  1  0
 18  4  1  0
 19 10  2  0
 20 23  1  0
 21  7  2  0
 22 19  1  0
 23 29  1  0
 24 26  1  0
 25 21  1  0
 26 28  2  0
 27 25  2  0
 28 20  1  0
 29 32  1  0
 30 22  1  0
 31 30  1  0
 32 31  1  0
  3  6  1  0
 27 19  1  0
  9 24  2  0
M  END

> <chembl_id>
CHEMBL6671

> <chembl_pref_name>
None

$$$$

     RDKit          2D

 22 24  0  0  0  0  0  0  0  0999 V2000
    3.0125   -0.9667    0.0000 C   0  0  0  0  0  0  0  0  0  0  0  0
    3.0125   -0.3625    0.0000 C   0  0  0  0  0  0  0  0  0  0  0  0
    1.9750   -0.9667    0.0000 C   0  0  0  0  0  0  0  0  0  0  0  0
    3.5875   -0.1750    0.0000 C   0  0  0  0  0  0  0  0  0  0  0  0
    3.5875   -1.1542    0.0000 O   0  0  0  0  0  0  0  0  0  0  0  0
    2.4917   -1.2667    0.0000 C   0  0  0  0  0  0  0  0  0  0  0  0
    1.9750   -0.3667    0.0000 C   0  0  0  0  0  0  0  0  0  0  0  0
    3.9417   -0.6625    0.0000 C   0  0  0  0  0  0  0  0  0  0  0  0
    1.4542   -0.0667    0.0000 C   0  0  0  0  0  0  0  0  0  0  0  0
    1.4542   -1.2667    0.0000 O   0  0  0  0  0  0  0  0  0  0  0  0
    2.4917   -0.0625    0.0000 C   0  0  0  0  0  0  0  0  0  0  0  0
    0.9375   -0.9667    0.0000 C   0  0  0  0  0  0  0  0  0  0  0  0
    0.9375   -0.3625    0.0000 C   0  0  0  0  0  0  0  0  0  0  0  0
    0.4167   -1.2667    0.0000 O   0  0  0  0  0  0  0  0  0  0  0  0
    3.5792    0.4250    0.0000 C   0  0  0  0  0  0  0  0  0  0  0  0
    2.4875   -1.8667    0.0000 C   0  0  0  0  0  0  0  0  0  0  0  0
    4.1000    0.7333    0.0000 N   0  0  0  0  0  0  0  0  0  0  0  0
    4.5417   -0.6542    0.0000 C   0  0  0  0  0  0  0  0  0  0  0  0
    1.4542    0.5333    0.0000 C   0  0  0  0  0  0  0  0  0  0  0  0
    5.6542    0.4458    0.0000 O   0  0  0  0  0  0  0  0  0  0  0  0
    4.6167    0.4333    0.0000 C   0  0  0  0  0  0  0  0  0  0  0  0
    5.1375    0.7375    0.0000 C   0  0  0  0  0  0  0  0  0  0  0  0
  2  1  1  0
  3  6  1  0
  4  2  1  0
  5  1  1  0
  6  1  2  0
  7  3  2  0
  8  5  1  0
  9  7  1  0
 10  3  1  0
 11  2  2  0
 12 10  1  0
 13 12  1  0
 14 12  2  0
 15  4  1  0
 16  6  1  0
 17 15  1  0
 18  8  1  0
 19  9  1  0
 20 22  1  0
 21 17  1  0
 22 21  1  0
  8  4  2  0
  7 11  1  0
 13  9  2  0
M  END

> <chembl_id>
CHEMBL6725

> <chembl_pref_name>
None

$$$$

     RDKit          2D

 14 14  0  0  0  0  0  0  0  0999 V2000
    1.0417   -5.0500    0.0000 Cl  0  0  0  0  0  0  0  0  0  0  0  0
   -1.3333   -3.0250    0.0000 C   0  0  0  0  0  0  0  0  0  0  0  0
   -0.5125   -3.5417    0.0000 N   0  0  0  0  0  0  0  0  0  0  0  0
   -0.7333   -2.9875    0.0000 C   0  0  0  0  0  0  0  0  0  0  0  0
   -1.4833   -3.6042    0.0000 C   0  0  0  0  0  0  0  0  0  0  0  0
   -0.9750   -3.9292    0.0000 O   0  0  0  0  0  0  0  0  0  0  0  0
   -2.3375   -2.7542    0.0000 N   0  0  0  0  0  0  0  0  0  0  0  0
   -1.7583   -2.6000    0.0000 C   0  0  0  0  0  0  0  0  0  0  0  0
   -2.0625   -3.7625    0.0000 C   0  0  0  0  0  0  0  0  0  0  0  0
   -0.4375   -2.4667    0.0000 O   0  0  0  0  0  0  0  0  0  0  0  0
   -2.4958   -3.3417    0.0000 C   0  0  0  0  0  0  0  0  0  0  0  0
    0.1625   -2.4542    0.0000 C   0  0  0  0  0  0  0  0  0  0  0  0
    0.4542   -1.9375    0.0000 C   0  0  0  0  0  0  0  0  0  0  0  0
    1.0542   -1.9292    0.0000 C   0  0  0  0  0  0  0  0  0  0  0  0
  3  4  2  0
  4  2  1  0
  5  2  2  0
  6  5  1  0
  7  8  1  0
  8  2  1  0
  9  5  1  0
 10  4  1  0
 11  7  1  0
 12 10  1  0
 13 12  1  0
 14 13  1  0
  3  6  1  0
 11  9  1  0
M  END

> <chembl_id>
CHEMBL6859

> <chembl_pref_name>
None

$$$$

     RDKit          2D

 14 14  0  0  0  0  0  0  0  0999 V2000
    1.0417   -5.0500    0.0000 Cl  0  0  0  0  0  0  0  0  0  0  0  0
   -0.7333   -2.9875    0.0000 C   0  0  0  0  0  0  0  0  0  0  0  0
   -1.3333   -3.0250    0.0000 C   0  0  0  0  0  0  0  0  0  0  0  0
   -0.5125   -3.5417    0.0000 N   0  0  0  0  0  0  0  0  0  0  0  0
   -1.4833   -3.6042    0.0000 C   0  0  0  0  0  0  0  0  0  0  0  0
   -0.9750   -3.9292    0.0000 O   0  0  0  0  0  0  0  0  0  0  0  0
   -2.3375   -2.7542    0.0000 N   0  0  0  0  0  0  0  0  0  0  0  0
   -0.4375   -2.4667    0.0000 O   0  0  0  0  0  0  0  0  0  0  0  0
   -1.7583   -2.6000    0.0000 C   0  0  0  0  0  0  0  0  0  0  0  0
   -2.0625   -3.7625    0.0000 C   0  0  0  0  0  0  0  0  0  0  0  0
   -2.4958   -3.3417    0.0000 C   0  0  0  0  0  0  0  0  0  0  0  0
    0.1625   -2.4542    0.0000 C   0  0  0  0  0  0  0  0  0  0  0  0
    0.4542   -1.9375    0.0000 C   0  0  0  0  0  0  0  0  0  0  0  0
    0.4667   -2.9750    0.0000 C   0  0  0  0  0  0  0  0  0  0  0  0
  3  2  1  0
  4  2  2  0
  5  3  2  0
  6  4  1  0
  7  9  1  0
  8  2  1  0
  9  3  1  0
 10  5  1  0
 11  7  1  0
 12  8  1  0
 13 12  1  0
 14 12  1  0
  6  5  1  0
 11 10  1  0
M  END

> <chembl_id>
CHEMBL6702

> <chembl_pref_name>
None

$$$$

     RDKit          2D

 16 16  0  0  0  0  0  0  0  0999 V2000
    1.1066   -0.9601    0.0000 S   0  0  0  0  0  0  0  0  0  0  0  0
    1.8211   -1.3726    0.0000 O   0  0  0  0  0  0  0  0  0  0  0  0
    1.5191   -0.2456    0.0000 O   0  0  0  0  0  0  0  0  0  0  0  0
    0.6941   -1.6745    0.0000 N   0  0  0  0  0  0  0  0  0  0  0  0
   -0.3223    1.5149    0.0000 S   0  0  0  0  0  0  0  0  0  0  0  0
   -0.3223    2.3399    0.0000 O   0  0  0  0  0  0  0  0  0  0  0  0
   -1.1473    1.5149    0.0000 O   0  0  0  0  0  0  0  0  0  0  0  0
    0.5027    1.5149    0.0000 N   0  0  0  0  0  0  0  0  0  0  0  0
    0.3921   -0.5476    0.0000 C   0  0  0  0  0  0  0  0  0  0  0  0
    0.3921    0.2774    0.0000 C   0  0  0  0  0  0  0  0  0  0  0  0
   -0.3223    0.6899    0.0000 C   0  0  0  0  0  0  0  0  0  0  0  0
   -1.0368    0.2774    0.0000 C   0  0  0  0  0  0  0  0  0  0  0  0
   -1.0368   -0.5476    0.0000 C   0  0  0  0  0  0  0  0  0  0  0  0
   -0.3223   -0.9601    0.0000 C   0  0  0  0  0  0  0  0  0  0  0  0
   -1.7513    0.6899    0.0000 Cl  0  0  0  0  0  0  0  0  0  0  0  0
   -1.7513   -0.9601    0.0000 Cl  0  0  0  0  0  0  0  0  0  0  0  0
  2  1  2  0
  3  1  2  0
  4  1  1  0
  9  1  1  0
  9 14  2  0
  9 10  1  0
 13 14  1  0
 10 11  2  0
 13 16  1  0
 12 13  2  0
 11 12  1  0
 11  5  1  0
 12 15  1  0
  8  5  1  0
  7  5  2  0
  6  5  2  0
M  END

> <chembl_id>
CHEMBL17

> <chembl_pref_name>
DICHLORPHENAMIDE

$$$$

     RDKit          2D

 18 19  0  0  0  0  0  0  0  0999 V2000
   -0.3969   -1.1702    0.0000 C   0  0  0  0  0  0  0  0  0  0  0  0
   -0.3969   -0.3452    0.0000 N   0  0  0  0  0  0  0  0  0  0  0  0
   -1.1114   -1.5827    0.0000 N   0  0  0  0  0  0  0  0  0  0  0  0
   -1.8259   -0.3452    0.0000 N   0  0  0  0  0  0  0  0  0  0  0  0
   -1.1114    0.0673    0.0000 C   0  0  0  0  0  0  0  0  0  0  0  0
   -1.8259   -1.1702    0.0000 C   0  0  0  0  0  0  0  0  0  0  0  0
    0.3175    0.0673    0.0000 C   0  0  0  0  0  0  0  0  0  0  0  0
    0.3175   -1.5827    0.0000 N   0  0  0  0  0  0  0  0  0  0  0  0
   -2.5403   -1.5827    0.0000 N   0  0  0  0  0  0  0  0  0  0  0  0
    1.0320   -0.3452    0.0000 C   0  0  0  0  0  0  0  0  0  0  0  0
    0.3175    0.8923    0.0000 C   0  0  0  0  0  0  0  0  0  0  0  0
   -0.5811    0.6993    0.0000 C   0  0  0  0  0  0  0  0  0  0  0  0
   -1.6417    0.6993    0.0000 C   0  0  0  0  0  0  0  0  0  0  0  0
    1.7465    0.8923    0.0000 C   0  0  0  0  0  0  0  0  0  0  0  0
    1.7465    0.0673    0.0000 C   0  0  0  0  0  0  0  0  0  0  0  0
    1.0320    1.3048    0.0000 C   0  0  0  0  0  0  0  0  0  0  0  0
    2.4610    1.3048    0.0000 O   0  0  0  0  0  0  0  0  0  0  0  0
    2.4610    2.1298    0.0000 C   0  0  0  0  0  0  0  0  0  0  0  0
  2  1  1  0
  1  3  2  0
  6  4  2  0
  5  2  1  0
  6  3  1  0
  7  2  1  0
  8  1  1  0
  9  6  1  0
 10  7  2  0
 11  7  1  0
 12  5  1  0
 13  5  1  0
 14 16  1  0
 15 10  1  0
 11 16  2  0
 17 14  1  0
 18 17  1  0
  5  4  1  0
 14 15  2  0
M  END

> <chembl_id>
CHEMBL266573

> <chembl_pref_name>
None

$$$$

     RDKit          2D

 18 19  0  0  0  0  0  0  0  0999 V2000
    0.6417    0.3458    0.0000 Cl  0  0  0  0  0  0  0  0  0  0  0  0
   -2.0625   -0.3500    0.0000 C   0  0  0  0  0  0  0  0  0  0  0  0
   -2.5333    0.0250    0.0000 C   0  0  0  0  0  0  0  0  0  0  0  0
   -3.0875   -0.1792    0.0000 C   0  0  0  0  0  0  0  0  0  0  0  0
   -2.7083   -1.1542    0.0000 C   0  0  0  0  0  0  0  0  0  0  0  0
   -3.1708   -0.7792    0.0000 C   0  0  0  0  0  0  0  0  0  0  0  0
   -2.1583   -0.9417    0.0000 C   0  0  0  0  0  0  0  0  0  0  0  0
   -2.5583    0.6250    0.0000 O   0  0  0  0  0  0  0  0  0  0  0  0
   -2.6708   -1.7500    0.0000 O   0  0  0  0  0  0  0  0  0  0  0  0
   -1.5083   -0.1292    0.0000 C   0  0  0  0  0  0  0  0  0  0  0  0
   -0.5583   -0.1417    0.0000 N   0  0  0  0  0  0  0  0  0  0  0  0
   -3.7333   -0.9917    0.0000 Br  0  0  0  0  0  0  0  0  0  0  0  0
   -3.4583    0.2833    0.0000 C   0  0  0  0  0  0  0  0  0  0  0  0
   -1.0375   -0.4917    0.0000 C   0  0  0  0  0  0  0  0  0  0  0  0
   -1.7708   -1.3917    0.0000 C   0  0  0  0  0  0  0  0  0  0  0  0
   -3.1333    0.7833    0.0000 C   0  0  0  0  0  0  0  0  0  0  0  0
   -2.0875   -1.9042    0.0000 C   0  0  0  0  0  0  0  0  0  0  0  0
   -0.8250   -1.0542    0.0000 C   0  0  0  0  0  0  0  0  0  0  0  0
  3  2  2  0
  4  3  1  0
  5  7  2  0
  6  5  1  0
  7  2  1  0
  8  3  1  0
  9  5  1  0
 10  2  1  0
 11 14  1  0
 12  6  1  0
 13  4  1  0
 14 10  1  0
 15  7  1  0
 16  8  1  0
 17 15  1  0
 14 18  1  1
  9 17  1  0
  4  6  2  0
 16 13  1  0
M  END

> <chembl_id>
CHEMBL263078

> <chembl_pref_name>
None

$$$$

     RDKit          2D

 18 18  0  0  0  0  0  0  0  0999 V2000
   10.9569   -6.0333    0.0000 C   0  0  0  0  0  0  0  0  0  0  0  0
   10.9557   -6.8607    0.0000 C   0  0  0  0  0  0  0  0  0  0  0  0
   11.6706   -7.2735    0.0000 C   0  0  0  0  0  0  0  0  0  0  0  0
   12.3870   -6.8602    0.0000 C   0  0  0  0  0  0  0  0  0  0  0  0
   12.3841   -6.0297    0.0000 C   0  0  0  0  0  0  0  0  0  0  0  0
   11.6688   -5.6205    0.0000 C   0  0  0  0  0  0  0  0  0  0  0  0
   11.6663   -4.7955    0.0000 O   0  0  0  0  0  0  0  0  0  0  0  0
   11.6704   -8.0985    0.0000 O   0  0  0  0  0  0  0  0  0  0  0  0
   13.0971   -5.6145    0.0000 C   0  0  0  0  0  0  0  0  0  0  0  0
   13.8131   -6.0243    0.0000 C   0  0  0  0  0  0  0  0  0  0  0  0
   14.5260   -5.6091    0.0000 N   0  0  0  0  0  0  0  0  0  0  0  0
   13.8162   -6.8493    0.0000 C   0  0  0  0  0  0  0  0  0  0  0  0
   12.3795   -4.3809    0.0000 C   0  0  0  0  0  0  0  0  0  0  0  0
   10.9558   -8.5109    0.0000 C   0  0  0  0  0  0  0  0  0  0  0  0
   10.2409   -7.2726    0.0000 C   0  0  0  0  0  0  0  0  0  0  0  0
    9.5208   -7.6792    0.0000 F   0  0  0  0  0  0  0  0  0  0  0  0
   10.6497   -7.9892    0.0000 F   0  0  0  0  0  0  0  0  0  0  0  0
    9.8339   -6.5550    0.0000 F   0  0  0  0  0  0  0  0  0  0  0  0
  5  9  1  0
  4  5  1  0
  9 10  1  0
  2  3  1  0
 10 11  1  0
  5  6  2  0
 10 12  1  0
  6  1  1  0
  7 13  1  0
  1  2  2  0
  8 14  1  0
  6  7  1  0
  2 15  1  0
  3  4  2  0
 15 16  1  0
  3  8  1  0
 15 17  1  0
 15 18  1  0
M  END

> <chembl_id>
CHEMBL6620

> <chembl_pref_name>
None

$$$$

     RDKit          2D

 15 15  0  0  0  0  0  0  0  0999 V2000
    0.0000   -2.4785    0.0000 Br  0  0  0  0  0  0  0  0  0  0  0  0
    2.8651   -2.4785    0.0000 O   0  0  0  0  0  0  0  0  0  0  0  0
    0.0000   -0.8290    0.0000 O   0  0  0  0  0  0  0  0  0  0  0  0
    4.2955   -0.8290    0.0000 N   0  0  0  0  0  0  0  0  0  0  0  0
    2.1477   -1.2457    0.0000 C   0  0  0  0  0  0  0  0  0  0  0  0
    2.1477   -2.0704    0.0000 C   0  0  0  0  0  0  0  0  0  0  0  0
    0.7173   -1.2457    0.0000 C   0  0  0  0  0  0  0  0  0  0  0  0
    0.7173   -2.0704    0.0000 C   0  0  0  0  0  0  0  0  0  0  0  0
    1.4304   -0.8290    0.0000 C   0  0  0  0  0  0  0  0  0  0  0  0
    1.4304   -2.4785    0.0000 C   0  0  0  0  0  0  0  0  0  0  0  0
    2.8651   -0.8290    0.0000 C   0  0  0  0  0  0  0  0  0  0  0  0
    3.5782   -1.2371    0.0000 C   0  0  0  0  0  0  0  0  0  0  0  0
    2.8651   -3.3032    0.0000 C   0  0  0  0  0  0  0  0  0  0  0  0
    0.0000    0.0000    0.0000 C   0  0  0  0  0  0  0  0  0  0  0  0
    3.5782   -2.0618    0.0000 C   0  0  0  0  0  0  0  0  0  0  0  0
  1  8  1  0
  2  6  1  0
  2 13  1  0
  3  7  1  0
  3 14  1  0
  4 12  1  0
  5  6  1  0
  5  9  2  0
  5 11  1  0
  6 10  2  0
  7  8  2  0
  7  9  1  0
  8 10  1  0
 11 12  1  0
 12 15  1  0
M  END

> <chembl_id>
CHEMBL6607

> <chembl_pref_name>
BROLAMFETAMINE

$$$$

     RDKit          2D

 19 20  0  0  0  0  0  0  0  0999 V2000
    4.3667   -4.5792    0.0000 C   0  0  0  0  0  0  0  0  0  0  0  0
    3.5500   -4.5500    0.0000 C   0  0  0  0  0  0  0  0  0  0  0  0
    6.7875   -6.1000    0.0000 C   0  0  0  0  0  0  0  0  0  0  0  0
    4.8042   -3.8792    0.0000 C   0  0  0  0  0  0  0  0  0  0  0  0
    4.7542   -5.3042    0.0000 C   0  0  0  0  0  0  0  0  0  0  0  0
    5.5792   -5.3375    0.0000 C   0  0  0  0  0  0  0  0  0  0  0  0
    7.1750   -6.8250    0.0000 O   0  0  0  0  0  0  0  0  0  0  0  0
    3.1625   -3.8167    0.0000 C   0  0  0  0  0  0  0  0  0  0  0  0
    5.9667   -6.0667    0.0000 C   0  0  0  0  0  0  0  0  0  0  0  0
    3.1042   -5.2542    0.0000 C   0  0  0  0  0  0  0  0  0  0  0  0
    5.6250   -3.9042    0.0000 C   0  0  0  0  0  0  0  0  0  0  0  0
    1.8917   -4.4875    0.0000 C   0  0  0  0  0  0  0  0  0  0  0  0
    6.0167   -4.6375    0.0000 C   0  0  0  0  0  0  0  0  0  0  0  0
    7.2292   -5.4000    0.0000 O   0  0  0  0  0  0  0  0  0  0  0  0
    2.3417   -3.7917    0.0000 C   0  0  0  0  0  0  0  0  0  0  0  0
    2.2792   -5.2167    0.0000 C   0  0  0  0  0  0  0  0  0  0  0  0
    1.0667   -4.4542    0.0000 Cl  0  0  0  0  0  0  0  0  0  0  0  0
    4.4167   -3.1542    0.0000 O   0  0  0  0  0  0  0  0  0  0  0  0
    4.8500   -2.4542    0.0000 C   0  0  0  0  0  0  0  0  0  0  0  0
  2  1  1  0
  3  9  1  0
  4  1  1  0
  5  1  2  0
  6  5  1  0
  7  3  2  0
  8  2  2  0
  9  6  1  0
 10  2  1  0
 11  4  2  0
 12 16  1  0
 13  6  2  0
 14  3  1  0
 15  8  1  0
 16 10  2  0
 17 12  1  0
 18  4  1  0
 19 18  1  0
 13 11  1  0
 15 12  2  0
M  END

> <chembl_id>
CHEMBL267037

> <chembl_pref_name>
None

$$$$

     RDKit          2D

 11 11  0  0  0  0  0  0  0  0999 V2000
    3.9375   -2.9792    0.0000 C   0  0  0  0  0  0  0  0  0  0  0  0
    5.3625   -2.9792    0.0000 N   0  0  0  0  0  0  0  0  0  0  0  0
    4.6542   -2.5667    0.0000 C   0  0  0  0  0  0  0  0  0  0  0  0
    6.0750   -2.5667    0.0000 C   0  0  0  0  0  0  0  0  0  0  0  0
    6.7917   -2.9792    0.0000 N   0  0  0  0  0  0  0  0  0  0  0  0
    3.2250   -2.5667    0.0000 F   0  0  0  0  0  0  0  0  0  0  0  0
    3.9375   -3.8042    0.0000 F   0  0  0  0  0  0  0  0  0  0  0  0
    3.7250   -2.1875    0.0000 F   0  0  0  0  0  0  0  0  0  0  0  0
    6.0750   -1.7417    0.0000 C   0  0  0  0  0  0  0  0  0  0  0  0
    4.6542   -1.7417    0.0000 C   0  0  0  0  0  0  0  0  0  0  0  0
    5.3625   -1.3292    0.0000 C   0  0  0  0  0  0  0  0  0  0  0  0
  2  3  1  0
  3  1  1  0
  4  2  2  0
  5  4  1  0
  6  1  1  0
  7  1  1  0
  8  1  1  0
  9 11  1  0
 10  3  1  0
 11 10  1  0
  4  9  1  0
M  END

> <chembl_id>
CHEMBL267038

> <chembl_pref_name>
None

$$$$

     RDKit          2D

 18 19  0  0  0  0  0  0  0  0999 V2000
    6.4966   -0.1039    0.0000 N   0  0  0  0  0  0  0  0  0  0  0  0
    7.9256   -0.1039    0.0000 N   0  0  0  0  0  0  0  0  0  0  0  0
    7.2111   -1.3414    0.0000 N   0  0  0  0  0  0  0  0  0  0  0  0
    5.7822   -1.3414    0.0000 N   0  0  0  0  0  0  0  0  0  0  0  0
    8.6401   -1.3414    0.0000 N   0  0  0  0  0  0  0  0  0  0  0  0
    2.9243   -0.5164    0.0000 N   0  0  0  0  0  0  0  0  0  0  0  0
    7.2111    0.3086    0.0000 C   0  0  0  0  0  0  0  0  0  0  0  0
    5.7822    0.3086    0.0000 C   0  0  0  0  0  0  0  0  0  0  0  0
    6.4966   -0.9289    0.0000 C   0  0  0  0  0  0  0  0  0  0  0  0
    7.9256   -0.9289    0.0000 C   0  0  0  0  0  0  0  0  0  0  0  0
    5.0677   -0.1039    0.0000 C   0  0  0  0  0  0  0  0  0  0  0  0
    5.7822    1.1336    0.0000 C   0  0  0  0  0  0  0  0  0  0  0  0
    6.8238    1.0371    0.0000 C   0  0  0  0  0  0  0  0  0  0  0  0
    7.5984    1.0371    0.0000 C   0  0  0  0  0  0  0  0  0  0  0  0
    4.3532    0.3086    0.0000 C   0  0  0  0  0  0  0  0  0  0  0  0
    5.0677    1.5461    0.0000 C   0  0  0  0  0  0  0  0  0  0  0  0
    4.3532    1.1336    0.0000 C   0  0  0  0  0  0  0  0  0  0  0  0
    3.6388   -0.1039    0.0000 C   0  0  0  0  0  0  0  0  0  0  0  0
  1  7  1  0
  1  8  1  0
  1  9  1  0
  2  7  1  0
  2 10  2  0
  3  9  2  0
  3 10  1  0
  4  9  1  0
  5 10  1  0
  6 18  3  0
  7 13  1  0
  7 14  1  0
  8 11  1  0
  8 12  2  0
 11 15  2  0
 12 16  1  0
 15 17  1  0
 15 18  1  0
 16 17  2  0
M  END

> <chembl_id>
CHEMBL268914

> <chembl_pref_name>
None

$$$$

     RDKit          2D

 15 15  0  0  0  0  0  0  0  0999 V2000
    1.0417   -5.0500    0.0000 Cl  0  0  0  0  0  0  0  0  0  0  0  0
   -1.3333   -3.0250    0.0000 C   0  0  0  0  0  0  0  0  0  0  0  0
   -0.5125   -3.5417    0.0000 N   0  0  0  0  0  0  0  0  0  0  0  0
   -0.7333   -2.9875    0.0000 C   0  0  0  0  0  0  0  0  0  0  0  0
   -1.4833   -3.6042    0.0000 C   0  0  0  0  0  0  0  0  0  0  0  0
   -0.9750   -3.9292    0.0000 O   0  0  0  0  0  0  0  0  0  0  0  0
   -2.3375   -2.7542    0.0000 N   0  0  0  0  0  0  0  0  0  0  0  0
   -1.7583   -2.6000    0.0000 C   0  0  0  0  0  0  0  0  0  0  0  0
   -2.0625   -3.7625    0.0000 C   0  0  0  0  0  0  0  0  0  0  0  0
   -0.4375   -2.4667    0.0000 O   0  0  0  0  0  0  0  0  0  0  0  0
   -2.4958   -3.3417    0.0000 C   0  0  0  0  0  0  0  0  0  0  0  0
    0.1625   -2.4542    0.0000 C   0  0  0  0  0  0  0  0  0  0  0  0
    0.4542   -1.9375    0.0000 C   0  0  0  0  0  0  0  0  0  0  0  0
    1.0542   -1.9292    0.0000 C   0  0  0  0  0  0  0  0  0  0  0  0
    1.3500   -1.4042    0.0000 C   0  0  0  0  0  0  0  0  0  0  0  0
  3  4  2  0
  4  2  1  0
  5  2  2  0
  6  5  1  0
  7  8  1  0
  8  2  1  0
  9  5  1  0
 10  4  1  0
 11  7  1  0
 12 10  1  0
 13 12  1  0
 14 13  1  0
 15 14  1  0
  3  6  1  0
 11  9  1  0
M  END

> <chembl_id>
CHEMBL6860

> <chembl_pref_name>
None

$$$$

     RDKit          2D

 13 13  0  0  0  0  0  0  0  0999 V2000
    1.0417   -5.0500    0.0000 Cl  0  0  0  0  0  0  0  0  0  0  0  0
   -1.3333   -3.0250    0.0000 C   0  0  0  0  0  0  0  0  0  0  0  0
   -0.5125   -3.5417    0.0000 N   0  0  0  0  0  0  0  0  0  0  0  0
   -0.7333   -2.9875    0.0000 C   0  0  0  0  0  0  0  0  0  0  0  0
   -1.4833   -3.6042    0.0000 C   0  0  0  0  0  0  0  0  0  0  0  0
   -0.9750   -3.9292    0.0000 O   0  0  0  0  0  0  0  0  0  0  0  0
   -2.3375   -2.7542    0.0000 N   0  0  0  0  0  0  0  0  0  0  0  0
   -1.7583   -2.6000    0.0000 C   0  0  0  0  0  0  0  0  0  0  0  0
   -2.0625   -3.7625    0.0000 C   0  0  0  0  0  0  0  0  0  0  0  0
   -0.4375   -2.4667    0.0000 O   0  0  0  0  0  0  0  0  0  0  0  0
   -2.4958   -3.3417    0.0000 C   0  0  0  0  0  0  0  0  0  0  0  0
    0.1625   -2.4542    0.0000 C   0  0  0  0  0  0  0  0  0  0  0  0
    0.4542   -1.9375    0.0000 C   0  0  0  0  0  0  0  0  0  0  0  0
  3  4  2  0
  4  2  1  0
  5  2  2  0
  6  5  1  0
  7  8  1  0
  8  2  1  0
  9  5  1  0
 10  4  1  0
 11  7  1  0
 12 10  1  0
 13 12  1  0
  3  6  1  0
 11  9  1  0
M  END

> <chembl_id>
CHEMBL6680

> <chembl_pref_name>
None

$$$$

     RDKit          2D

 16 17  0  0  0  0  0  0  0  0999 V2000
   -2.7369   -0.0693    0.0000 N   0  0  0  0  0  0  0  0  0  0  0  0
    0.1827   -0.4818    0.0000 C   0  0  0  0  0  0  0  0  0  0  0  0
    0.1827    0.3432    0.0000 C   0  0  0  0  0  0  0  0  0  0  0  0
    0.8972    0.7557    0.0000 C   0  0  0  0  0  0  0  0  0  0  0  0
    1.6116    0.3432    0.0000 C   0  0  0  0  0  0  0  0  0  0  0  0
    3.0406    0.3432    0.0000 C   0  0  0  0  0  0  0  0  0  0  0  0
   -1.9119   -0.8943    0.0000 O   0  0  0  0  0  0  0  0  0  0  0  0
   -1.9119    0.7557    0.0000 O   0  0  0  0  0  0  0  0  0  0  0  0
   -1.9119   -0.0693    0.0000 S   0  0  0  0  0  0  0  0  0  0  0  0
   -1.0869   -0.0693    0.0000 C   0  0  0  0  0  0  0  0  0  0  0  0
   -0.6019   -0.7367    0.0000 N   0  0  0  0  0  0  0  0  0  0  0  0
   -0.6019    0.5982    0.0000 S   0  0  0  0  0  0  0  0  0  0  0  0
    1.6116   -0.4818    0.0000 C   0  0  0  0  0  0  0  0  0  0  0  0
    0.8972   -0.8943    0.0000 C   0  0  0  0  0  0  0  0  0  0  0  0
    2.3261    0.7557    0.0000 O   0  0  0  0  0  0  0  0  0  0  0  0
    3.7550    0.7557    0.0000 C   0  0  0  0  0  0  0  0  0  0  0  0
  1  9  1  0
  2  3  2  0
  2 11  1  0
  2 14  1  0
  3  4  1  0
  3 12  1  0
  4  5  2  0
  5 13  1  0
  5 15  1  0
  6 15  1  0
  6 16  1  0
  7  9  2  0
  8  9  2  0
 10  9  1  0
 10 11  2  0
 10 12  1  0
 13 14  2  0
M  END

> <chembl_id>
CHEMBL18

> <chembl_pref_name>
ETHOXZOLAMIDE

$$$$

     RDKit          2D

 71 72  0  0  1  0  0  0  0  0999 V2000
    9.2417   -4.4042    0.0000 N   0  0  0  0  0  0  0  0  0  0  0  0
    8.5292   -3.9875    0.0000 C   0  0  0  0  0  0  0  0  0  0  0  0
   10.1792   -3.2667    0.0000 C   0  0  0  0  0  0  0  0  0  0  0  0
   -0.7833   -4.3167    0.0000 C   0  0  0  0  0  0  0  0  0  0  0  0
   -0.0583   -3.9125    0.0000 C   0  0  0  0  0  0  0  0  0  0  0  0
    6.3792   -4.3792    0.0000 C   0  0  0  0  0  0  0  0  0  0  0  0
   -1.4958   -3.9000    0.0000 N   0  0  0  0  0  0  0  0  0  0  0  0
    7.0917   -3.9792    0.0000 N   0  0  0  0  0  0  0  0  0  0  0  0
    4.9417   -4.3667    0.0000 N   0  0  0  0  0  0  0  0  0  0  0  0
    7.8125   -4.4000    0.0000 C   0  0  0  0  0  0  0  0  0  0  0  0
   10.0000   -4.0792    0.0000 C   0  0  0  0  0  0  0  0  0  0  0  0
   -2.2125   -4.3042    0.0000 C   0  0  0  0  0  0  0  0  0  0  0  0
    4.2292   -3.9500    0.0000 C   0  0  0  0  0  0  0  0  0  0  0  0
   11.9292   -1.9667    0.0000 C   0  0  0  0  0  0  0  0  0  0  0  0
   10.9667   -3.0250    0.0000 N   0  0  0  0  0  0  0  0  0  0  0  0
    2.0792   -4.3417    0.0000 C   0  0  0  0  0  0  0  0  0  0  0  0
    0.6500   -4.3292    0.0000 N   0  0  0  0  0  0  0  0  0  0  0  0
    2.8000   -3.9375    0.0000 N   0  0  0  0  0  0  0  0  0  0  0  0
    5.6667   -3.9625    0.0000 C   0  0  0  0  0  0  0  0  0  0  0  0
    3.5167   -4.3542    0.0000 C   0  0  0  0  0  0  0  0  0  0  0  0
   -2.9333   -3.8875    0.0000 C   0  0  0  0  0  0  0  0  0  0  0  0
   11.1417   -2.2167    0.0000 N   0  0  0  0  0  0  0  0  0  0  0  0
    3.5042   -5.1792    0.0000 C   0  0  0  0  0  0  0  0  0  0  0  0
   -2.9208   -3.0625    0.0000 C   0  0  0  0  0  0  0  0  0  0  0  0
   -3.6458   -4.2917    0.0000 N   0  0  0  0  0  0  0  0  0  0  0  0
    1.3667   -3.9250    0.0000 C   0  0  0  0  0  0  0  0  0  0  0  0
   -2.2000   -2.6500    0.0000 C   0  0  0  0  0  0  0  0  0  0  0  0
    4.2167   -5.6042    0.0000 C   0  0  0  0  0  0  0  0  0  0  0  0
   -3.6583   -5.1167    0.0000 C   0  0  0  0  0  0  0  0  0  0  0  0
   12.4542   -1.3292    0.0000 O   0  0  0  0  0  0  0  0  0  0  0  0
    8.5375   -3.1625    0.0000 O   0  0  0  0  0  0  0  0  0  0  0  0
    9.5667   -2.7125    0.0000 O   0  0  0  0  0  0  0  0  0  0  0  0
    2.1042   -1.8625    0.0000 C   0  0  0  0  0  0  0  0  0  0  0  0
   -0.0583   -3.0792    0.0000 O   0  0  0  0  0  0  0  0  0  0  0  0
    6.3667   -5.2042    0.0000 O   0  0  0  0  0  0  0  0  0  0  0  0
   12.2250   -2.7417    0.0000 O   0  0  0  0  0  0  0  0  0  0  0  0
   -2.2208   -5.1292    0.0000 O   0  0  0  0  0  0  0  0  0  0  0  0
    4.2417   -3.1250    0.0000 O   0  0  0  0  0  0  0  0  0  0  0  0
    2.0667   -5.1667    0.0000 O   0  0  0  0  0  0  0  0  0  0  0  0
   -0.7958   -5.1417    0.0000 C   0  0  0  0  0  0  0  0  0  0  0  0
    4.2125   -6.4292    0.0000 O   0  0  0  0  0  0  0  0  0  0  0  0
   -2.1958   -1.8250    0.0000 O   0  0  0  0  0  0  0  0  0  0  0  0
   -4.3708   -5.5292    0.0000 O   0  0  0  0  0  0  0  0  0  0  0  0
    2.8250   -1.4542    0.0000 O   0  0  0  0  0  0  0  0  0  0  0  0
    1.3792   -3.1000    0.0000 C   0  0  0  0  0  0  0  0  0  0  0  0
    7.8042   -5.2250    0.0000 C   0  0  0  0  0  0  0  0  0  0  0  0
    9.3250   -5.2292    0.0000 C   0  0  0  0  0  0  0  0  0  0  0  0
    5.6750   -3.1375    0.0000 C   0  0  0  0  0  0  0  0  0  0  0  0
    2.1000   -2.6875    0.0000 C   0  0  0  0  0  0  0  0  0  0  0  0
   13.2667   -1.4625    0.0000 C   0  0  0  0  0  0  0  0  0  0  0  0
    4.9417   -5.2000    0.0000 O   0  0  0  0  0  0  0  0  0  0  0  0
   -1.4875   -3.0667    0.0000 O   0  0  0  0  0  0  0  0  0  0  0  0
    1.3917   -1.4417    0.0000 O   0  0  0  0  0  0  0  0  0  0  0  0
   10.5500   -4.7000    0.0000 C   0  0  0  0  0  0  0  0  0  0  0  0
   -0.0833   -5.5667    0.0000 O   0  0  0  0  0  0  0  0  0  0  0  0
   13.7917   -0.8250    0.0000 C   0  0  0  0  0  0  0  0  0  0  0  0
   10.5375   -1.6625    0.0000 C   0  0  0  0  0  0  0  0  0  0  0  0
   10.1292   -5.4125    0.0000 C   0  0  0  0  0  0  0  0  0  0  0  0
   -2.9458   -5.5375    0.0000 C   0  0  0  0  0  0  0  0  0  0  0  0
   -1.5125   -5.5542    0.0000 C   0  0  0  0  0  0  0  0  0  0  0  0
    7.0792   -5.6292    0.0000 C   0  0  0  0  0  0  0  0  0  0  0  0
    8.5167   -5.6417    0.0000 C   0  0  0  0  0  0  0  0  0  0  0  0
    6.3917   -2.7292    0.0000 C   0  0  0  0  0  0  0  0  0  0  0  0
    4.9625   -2.7167    0.0000 C   0  0  0  0  0  0  0  0  0  0  0  0
   13.4917   -0.0542    0.0000 C   0  0  0  0  0  0  0  0  0  0  0  0
   14.6042   -0.9542    0.0000 C   0  0  0  0  0  0  0  0  0  0  0  0
   10.7167   -0.8542    0.0000 C   0  0  0  0  0  0  0  0  0  0  0  0
   10.1042   -0.3000    0.0000 C   0  0  0  0  0  0  0  0  0  0  0  0
   15.1292   -0.3167    0.0000 C   0  0  0  0  0  0  0  0  0  0  0  0
   14.0167    0.5833    0.0000 C   0  0  0  0  0  0  0  0  0  0  0  0
   14.8292    0.4500    0.0000 C   0  0  0  0  0  0  0  0  0  0  0  0
  2  1  1  0
 11  3  1  1
  4  5  1  0
  5 17  1  0
  6  8  1  0
  4  7  1  6
 10  8  1  6
 19  9  1  1
 10  2  1  0
 11  1  1  0
 12  7  1  0
 13  9  1  0
 14 22  1  0
 15  3  1  0
 16 18  1  0
 26 17  1  1
 20 18  1  6
 19  6  1  0
 20 13  1  0
 21 12  1  0
 22 15  1  0
 20 23  1  0
 21 24  1  1
 25 21  1  0
 26 16  1  0
 27 24  1  0
 28 23  1  0
 29 25  1  0
 30 14  1  0
 31  2  2  0
 32  3  2  0
 33 49  1  0
 34  5  2  0
 35  6  2  0
 36 14  2  0
 37 12  2  0
 38 13  2  0
 39 16  2  0
  4 40  1  0
 41 28  2  0
 42 27  2  0
 43 29  2  0
 44 33  2  0
 26 45  1  0
 10 46  1  0
 47  1  1  0
 19 48  1  0
 49 45  1  0
 50 30  1  0
 51 28  1  0
 52 27  1  0
 53 33  1  0
 11 54  1  0
 40 55  1  6
 56 50  1  0
 57 22  1  0
 58 47  1  0
 59 29  1  0
 60 40  1  0
 61 46  1  0
 62 46  1  0
 63 48  1  0
 64 48  1  0
 65 56  1  0
 66 56  2  0
 67 57  1  0
 68 67  1  0
 69 66  1  0
 70 65  2  0
 71 69  2  0
 54 58  1  0
 71 70  1  0
M  END

> <chembl_id>
CHEMBL268985

> <chembl_pref_name>
None

$$$$

     RDKit          2D

 74 75  0  0  1  0  0  0  0  0999 V2000
    9.2417   -4.2417    0.0000 N   0  0  0  0  0  0  0  0  0  0  0  0
    8.5292   -3.8250    0.0000 C   0  0  0  0  0  0  0  0  0  0  0  0
   10.1792   -3.1042    0.0000 C   0  0  0  0  0  0  0  0  0  0  0  0
   -0.7833   -4.1542    0.0000 C   0  0  0  0  0  0  0  0  0  0  0  0
   15.9042   -0.0875    0.0000 N   0  0  0  0  0  0  0  0  0  0  0  0
   -0.0583   -3.7500    0.0000 C   0  0  0  0  0  0  0  0  0  0  0  0
    6.3792   -4.2167    0.0000 C   0  0  0  0  0  0  0  0  0  0  0  0
   -1.4958   -3.7375    0.0000 N   0  0  0  0  0  0  0  0  0  0  0  0
    7.0917   -3.8167    0.0000 N   0  0  0  0  0  0  0  0  0  0  0  0
    4.9417   -4.2042    0.0000 N   0  0  0  0  0  0  0  0  0  0  0  0
    7.8125   -4.2375    0.0000 C   0  0  0  0  0  0  0  0  0  0  0  0
   10.0000   -3.9167    0.0000 C   0  0  0  0  0  0  0  0  0  0  0  0
   -2.2125   -4.1417    0.0000 C   0  0  0  0  0  0  0  0  0  0  0  0
    4.2292   -3.7875    0.0000 C   0  0  0  0  0  0  0  0  0  0  0  0
   11.9125   -2.3542    0.0000 C   0  0  0  0  0  0  0  0  0  0  0  0
   10.9667   -2.8625    0.0000 N   0  0  0  0  0  0  0  0  0  0  0  0
    2.0792   -4.1792    0.0000 C   0  0  0  0  0  0  0  0  0  0  0  0
    0.6500   -4.1667    0.0000 N   0  0  0  0  0  0  0  0  0  0  0  0
    2.8000   -3.7750    0.0000 N   0  0  0  0  0  0  0  0  0  0  0  0
    5.6667   -3.8000    0.0000 C   0  0  0  0  0  0  0  0  0  0  0  0
    3.5167   -4.1917    0.0000 C   0  0  0  0  0  0  0  0  0  0  0  0
   -2.9333   -3.7250    0.0000 C   0  0  0  0  0  0  0  0  0  0  0  0
   11.1417   -2.0542    0.0000 N   0  0  0  0  0  0  0  0  0  0  0  0
    3.5042   -5.0167    0.0000 C   0  0  0  0  0  0  0  0  0  0  0  0
   -2.9208   -2.9000    0.0000 C   0  0  0  0  0  0  0  0  0  0  0  0
   -3.6458   -4.1292    0.0000 N   0  0  0  0  0  0  0  0  0  0  0  0
    1.3667   -3.7625    0.0000 C   0  0  0  0  0  0  0  0  0  0  0  0
   -2.2000   -2.4875    0.0000 C   0  0  0  0  0  0  0  0  0  0  0  0
    4.2167   -5.4417    0.0000 C   0  0  0  0  0  0  0  0  0  0  0  0
   15.2542   -0.6000    0.0000 C   0  0  0  0  0  0  0  0  0  0  0  0
   -3.6583   -4.9542    0.0000 C   0  0  0  0  0  0  0  0  0  0  0  0
   16.6667   -0.3875    0.0000 O   0  0  0  0  0  0  0  0  0  0  0  0
   12.5542   -1.8417    0.0000 O   0  0  0  0  0  0  0  0  0  0  0  0
    8.5375   -3.0000    0.0000 O   0  0  0  0  0  0  0  0  0  0  0  0
   15.7750    0.7333    0.0000 O   0  0  0  0  0  0  0  0  0  0  0  0
    9.5667   -2.5500    0.0000 O   0  0  0  0  0  0  0  0  0  0  0  0
    2.1042   -1.7000    0.0000 C   0  0  0  0  0  0  0  0  0  0  0  0
   -0.0583   -2.9167    0.0000 O   0  0  0  0  0  0  0  0  0  0  0  0
    6.3667   -5.0417    0.0000 O   0  0  0  0  0  0  0  0  0  0  0  0
   12.0292   -3.1667    0.0000 O   0  0  0  0  0  0  0  0  0  0  0  0
   -2.2208   -4.9667    0.0000 O   0  0  0  0  0  0  0  0  0  0  0  0
    4.2417   -2.9625    0.0000 O   0  0  0  0  0  0  0  0  0  0  0  0
    2.0667   -5.0042    0.0000 O   0  0  0  0  0  0  0  0  0  0  0  0
   -0.7958   -4.9792    0.0000 C   0  0  0  0  0  0  0  0  0  0  0  0
    4.2125   -6.2667    0.0000 O   0  0  0  0  0  0  0  0  0  0  0  0
   -2.1958   -1.6625    0.0000 O   0  0  0  0  0  0  0  0  0  0  0  0
   -4.3708   -5.3667    0.0000 O   0  0  0  0  0  0  0  0  0  0  0  0
    2.8250   -1.2917    0.0000 O   0  0  0  0  0  0  0  0  0  0  0  0
    1.3792   -2.9375    0.0000 C   0  0  0  0  0  0  0  0  0  0  0  0
   15.3792   -1.4167    0.0000 C   0  0  0  0  0  0  0  0  0  0  0  0
   14.4875   -0.3000    0.0000 C   0  0  0  0  0  0  0  0  0  0  0  0
    7.8042   -5.0625    0.0000 C   0  0  0  0  0  0  0  0  0  0  0  0
    9.3250   -5.0667    0.0000 C   0  0  0  0  0  0  0  0  0  0  0  0
    5.6750   -2.9750    0.0000 C   0  0  0  0  0  0  0  0  0  0  0  0
    2.1000   -2.5250    0.0000 C   0  0  0  0  0  0  0  0  0  0  0  0
   13.3250   -2.1417    0.0000 C   0  0  0  0  0  0  0  0  0  0  0  0
   13.9667   -1.6292    0.0000 C   0  0  0  0  0  0  0  0  0  0  0  0
   -1.4875   -2.9042    0.0000 O   0  0  0  0  0  0  0  0  0  0  0  0
    4.9417   -5.0292    0.0000 O   0  0  0  0  0  0  0  0  0  0  0  0
    1.3917   -1.2792    0.0000 O   0  0  0  0  0  0  0  0  0  0  0  0
   14.7375   -1.9292    0.0000 C   0  0  0  0  0  0  0  0  0  0  0  0
   13.8417   -0.8167    0.0000 C   0  0  0  0  0  0  0  0  0  0  0  0
   10.5500   -4.5375    0.0000 C   0  0  0  0  0  0  0  0  0  0  0  0
   -0.0833   -5.4042    0.0000 O   0  0  0  0  0  0  0  0  0  0  0  0
   10.5375   -1.5000    0.0000 C   0  0  0  0  0  0  0  0  0  0  0  0
   10.1292   -5.2500    0.0000 C   0  0  0  0  0  0  0  0  0  0  0  0
   -2.9458   -5.3750    0.0000 C   0  0  0  0  0  0  0  0  0  0  0  0
   -1.5125   -5.3917    0.0000 C   0  0  0  0  0  0  0  0  0  0  0  0
    8.5167   -5.4792    0.0000 C   0  0  0  0  0  0  0  0  0  0  0  0
    7.0792   -5.4667    0.0000 C   0  0  0  0  0  0  0  0  0  0  0  0
    4.9625   -2.5542    0.0000 C   0  0  0  0  0  0  0  0  0  0  0  0
    6.3917   -2.5667    0.0000 C   0  0  0  0  0  0  0  0  0  0  0  0
   10.7167   -0.6917    0.0000 C   0  0  0  0  0  0  0  0  0  0  0  0
   10.1042   -0.1375    0.0000 C   0  0  0  0  0  0  0  0  0  0  0  0
  2  1  1  0
 12  3  1  1
  4  6  1  0
  5 30  1  0
  6 18  1  0
  7  9  1  0
  4  8  1  6
 11  9  1  6
 20 10  1  1
 11  2  1  0
 12  1  1  0
 13  8  1  0
 14 10  1  0
 15 23  1  0
 16  3  1  0
 17 19  1  0
 27 18  1  1
 21 19  1  6
 20  7  1  0
 21 14  1  0
 22 13  1  0
 23 16  1  0
 21 24  1  0
 22 25  1  1
 26 22  1  0
 27 17  1  0
 28 25  1  0
 29 24  1  0
 30 51  1  0
 31 26  1  0
 32  5  1  0
 33 15  1  0
 34  2  2  0
 35  5  2  0
 36  3  2  0
 37 55  1  0
 38  6  2  0
 39  7  2  0
 40 15  2  0
 41 13  2  0
 42 14  2  0
 43 17  2  0
  4 44  1  0
 45 29  2  0
 46 28  2  0
 47 31  2  0
 48 37  2  0
 27 49  1  0
 50 61  1  0
 51 62  2  0
 11 52  1  0
 53  1  1  0
 20 54  1  0
 55 49  1  0
 56 33  1  0
 57 56  1  0
 58 28  1  0
 59 29  1  0
 60 37  1  0
 61 57  2  0
 62 57  1  0
 12 63  1  0
 44 64  1  6
 65 23  1  0
 66 53  1  0
 67 31  1  0
 68 44  1  0
 69 52  1  0
 70 52  1  0
 71 54  1  0
 72 54  1  0
 73 65  1  0
 74 73  1  0
 63 66  1  0
 30 50  2  0
M  CHG  2   5   1  32  -1
M  END

> <chembl_id>
CHEMBL265570

> <chembl_pref_name>
None

$$$$

     RDKit          2D

 24 26  0  0  0  0  0  0  0  0999 V2000
    4.3875   -1.3542    0.0000 C   0  0  0  0  0  0  0  0  0  0  0  0
    4.9167   -0.7292    0.0000 C   0  0  0  0  0  0  0  0  0  0  0  0
    3.6167   -1.0375    0.0000 N   0  0  0  0  0  0  0  0  0  0  0  0
    2.7542   -2.2500    0.0000 C   0  0  0  0  0  0  0  0  0  0  0  0
    4.4917   -0.0292    0.0000 N   0  0  0  0  0  0  0  0  0  0  0  0
    3.3000   -2.8625    0.0000 C   0  0  0  0  0  0  0  0  0  0  0  0
    2.9000   -1.4292    0.0000 C   0  0  0  0  0  0  0  0  0  0  0  0
    4.1125   -2.8125    0.0000 N   0  0  0  0  0  0  0  0  0  0  0  0
    3.6875   -0.2167    0.0000 C   0  0  0  0  0  0  0  0  0  0  0  0
    5.7417   -0.7792    0.0000 C   0  0  0  0  0  0  0  0  0  0  0  0
    4.5917   -2.1417    0.0000 C   0  0  0  0  0  0  0  0  0  0  0  0
    6.1125   -1.5250    0.0000 O   0  0  0  0  0  0  0  0  0  0  0  0
    1.9792   -2.5375    0.0000 C   0  0  0  0  0  0  0  0  0  0  0  0
    2.2542   -0.9042    0.0000 C   0  0  0  0  0  0  0  0  0  0  0  0
    2.9875   -3.6292    0.0000 O   0  0  0  0  0  0  0  0  0  0  0  0
    6.2042   -0.0917    0.0000 O   0  0  0  0  0  0  0  0  0  0  0  0
    6.9292   -1.5750    0.0000 C   0  0  0  0  0  0  0  0  0  0  0  0
    1.3417   -2.0125    0.0000 C   0  0  0  0  0  0  0  0  0  0  0  0
    1.4792   -1.1917    0.0000 C   0  0  0  0  0  0  0  0  0  0  0  0
    4.5042   -3.5417    0.0000 C   0  0  0  0  0  0  0  0  0  0  0  0
    0.5750   -2.2917    0.0000 Br  0  0  0  0  0  0  0  0  0  0  0  0
    7.3000   -2.3167    0.0000 C   0  0  0  0  0  0  0  0  0  0  0  0
    7.3917   -0.8875    0.0000 C   0  0  0  0  0  0  0  0  0  0  0  0
    7.7542   -1.5750    0.0000 C   0  0  0  0  0  0  0  0  0  0  0  0
  2  1  2  0
  3  1  1  0
  4  7  2  0
  5  2  1  0
  6  8  1  0
  7  3  1  0
  8 11  1  0
  9  3  1  0
 10  2  1  0
 11  1  1  0
 12 10  1  0
 13  4  1  0
 14  7  1  0
 15  6  2  0
 16 10  2  0
 17 12  1  0
 18 19  1  0
 19 14  2  0
 20  8  1  0
 21 18  1  0
 22 17  1  0
 23 17  1  0
 24 17  1  0
  5  9  2  0
  4  6  1  0
 18 13  2  0
M  END

> <chembl_id>
CHEMBL6655

> <chembl_pref_name>
None

$$$$

     RDKit          2D

 26 28  0  0  0  0  0  0  0  0999 V2000
    4.3875   -1.3542    0.0000 C   0  0  0  0  0  0  0  0  0  0  0  0
    3.6167   -1.0375    0.0000 N   0  0  0  0  0  0  0  0  0  0  0  0
    4.9167   -0.7292    0.0000 C   0  0  0  0  0  0  0  0  0  0  0  0
    2.7542   -2.2500    0.0000 C   0  0  0  0  0  0  0  0  0  0  0  0
    4.4917   -0.0292    0.0000 N   0  0  0  0  0  0  0  0  0  0  0  0
    3.3000   -2.8625    0.0000 C   0  0  0  0  0  0  0  0  0  0  0  0
    2.9000   -1.4292    0.0000 C   0  0  0  0  0  0  0  0  0  0  0  0
    4.1125   -2.8125    0.0000 N   0  0  0  0  0  0  0  0  0  0  0  0
    3.6875   -0.2167    0.0000 C   0  0  0  0  0  0  0  0  0  0  0  0
    4.5917   -2.1417    0.0000 C   0  0  0  0  0  0  0  0  0  0  0  0
    5.7417   -0.7792    0.0000 C   0  0  0  0  0  0  0  0  0  0  0  0
    1.9792   -2.5375    0.0000 C   0  0  0  0  0  0  0  0  0  0  0  0
    2.2542   -0.9042    0.0000 C   0  0  0  0  0  0  0  0  0  0  0  0
    2.9875   -3.6292    0.0000 O   0  0  0  0  0  0  0  0  0  0  0  0
    6.2042   -0.0917    0.0000 O   0  0  0  0  0  0  0  0  0  0  0  0
    1.3417   -2.0125    0.0000 C   0  0  0  0  0  0  0  0  0  0  0  0
    8.1250   -2.3667    0.0000 C   0  0  0  0  0  0  0  0  0  0  0  0
    6.1125   -1.5250    0.0000 O   0  0  0  0  0  0  0  0  0  0  0  0
    1.4792   -1.1917    0.0000 C   0  0  0  0  0  0  0  0  0  0  0  0
    4.5042   -3.5417    0.0000 C   0  0  0  0  0  0  0  0  0  0  0  0
    0.5750   -2.2917    0.0000 Cl  0  0  0  0  0  0  0  0  0  0  0  0
    6.9292   -1.5750    0.0000 C   0  0  0  0  0  0  0  0  0  0  0  0
    7.3000   -2.3167    0.0000 C   0  0  0  0  0  0  0  0  0  0  0  0
    8.4917   -3.1042    0.0000 C   0  0  0  0  0  0  0  0  0  0  0  0
    8.5792   -1.6792    0.0000 C   0  0  0  0  0  0  0  0  0  0  0  0
    8.9500   -2.3667    0.0000 C   0  0  0  0  0  0  0  0  0  0  0  0
  2  1  1  0
  3  1  2  0
  4  7  2  0
  5  3  1  0
  6  8  1  0
  7  2  1  0
  8 10  1  0
  9  2  1  0
 10  1  1  0
 11  3  1  0
 12  4  1  0
 13  7  1  0
 14  6  2  0
 15 11  2  0
 16 19  1  0
 17 23  1  0
 18 11  1  0
 19 13  2  0
 20  8  1  0
 21 16  1  0
 22 18  1  0
 23 22  1  0
 24 17  1  0
 25 17  1  0
 26 17  1  0
  5  9  2  0
  4  6  1  0
 16 12  2  0
M  END

> <chembl_id>
CHEMBL6826

> <chembl_pref_name>
None

$$$$

     RDKit          2D

 19 21  0  0  0  0  0  0  0  0999 V2000
    4.6500   -3.2417    0.0000 N   0  0  0  0  0  0  0  0  0  0  0  0
    3.8667   -2.1667    0.0000 C   0  0  0  0  0  0  0  0  0  0  0  0
    3.8667   -2.9917    0.0000 C   0  0  0  0  0  0  0  0  0  0  0  0
    4.6500   -1.9042    0.0000 N   0  0  0  0  0  0  0  0  0  0  0  0
    5.1375   -2.5792    0.0000 C   0  0  0  0  0  0  0  0  0  0  0  0
    3.1500   -1.7542    0.0000 C   0  0  0  0  0  0  0  0  0  0  0  0
    3.1500   -3.4042    0.0000 N   0  0  0  0  0  0  0  0  0  0  0  0
    2.4375   -2.1667    0.0000 N   0  0  0  0  0  0  0  0  0  0  0  0
    4.9042   -4.0292    0.0000 C   0  0  0  0  0  0  0  0  0  0  0  0
    2.4375   -2.9917    0.0000 C   0  0  0  0  0  0  0  0  0  0  0  0
    5.7125   -4.2042    0.0000 C   0  0  0  0  0  0  0  0  0  0  0  0
    3.1417   -0.9292    0.0000 N   0  0  0  0  0  0  0  0  0  0  0  0
    6.2625   -3.5917    0.0000 C   0  0  0  0  0  0  0  0  0  0  0  0
    7.0667   -3.7542    0.0000 C   0  0  0  0  0  0  0  0  0  0  0  0
    7.6167   -3.1417    0.0000 O   0  0  0  0  0  0  0  0  0  0  0  0
    6.7750   -5.1542    0.0000 C   0  0  0  0  0  0  0  0  0  0  0  0
    5.9667   -4.9875    0.0000 C   0  0  0  0  0  0  0  0  0  0  0  0
    7.3250   -4.5417    0.0000 C   0  0  0  0  0  0  0  0  0  0  0  0
    2.4292   -0.5167    0.0000 C   0  0  0  0  0  0  0  0  0  0  0  0
  2  3  1  0
  3  1  1  0
  4  5  2  0
  5  1  1  0
  6  2  2  0
  7  3  2  0
  8 10  2  0
  9  1  1  0
 10  7  1  0
 11  9  1  0
 12  6  1  0
 13 11  1  0
 14 13  2  0
 15 14  1  0
 16 17  1  0
 17 11  2  0
 18 16  2  0
 19 12  1  0
  4  2  1  0
  6  8  1  0
 14 18  1  0
M  END

> <chembl_id>
CHEMBL6827

> <chembl_pref_name>
None

$$$$

     RDKit          2D

 19 20  0  0  0  0  0  0  0  0999 V2000
    5.8042   -2.3167    0.0000 C   0  0  0  0  0  0  0  0  0  0  0  0
    6.0250   -3.1167    0.0000 C   0  0  0  0  0  0  0  0  0  0  0  0
    5.6750   -4.4917    0.0000 C   0  0  0  0  0  0  0  0  0  0  0  0
    5.0042   -2.1125    0.0000 C   0  0  0  0  0  0  0  0  0  0  0  0
    5.4500   -3.7042    0.0000 C   0  0  0  0  0  0  0  0  0  0  0  0
    6.3792   -1.7375    0.0000 C   0  0  0  0  0  0  0  0  0  0  0  0
    6.8167   -3.3250    0.0000 C   0  0  0  0  0  0  0  0  0  0  0  0
    5.1000   -5.0792    0.0000 O   0  0  0  0  0  0  0  0  0  0  0  0
    4.4292   -2.6917    0.0000 C   0  0  0  0  0  0  0  0  0  0  0  0
    4.7917   -1.3167    0.0000 C   0  0  0  0  0  0  0  0  0  0  0  0
    7.1667   -1.9417    0.0000 C   0  0  0  0  0  0  0  0  0  0  0  0
    3.4125   -1.6917    0.0000 C   0  0  0  0  0  0  0  0  0  0  0  0
    6.4667   -4.6917    0.0000 O   0  0  0  0  0  0  0  0  0  0  0  0
    7.4000   -2.7375    0.0000 C   0  0  0  0  0  0  0  0  0  0  0  0
    3.6250   -2.4750    0.0000 C   0  0  0  0  0  0  0  0  0  0  0  0
    3.9917   -1.1042    0.0000 C   0  0  0  0  0  0  0  0  0  0  0  0
    2.6042   -1.5000    0.0000 Cl  0  0  0  0  0  0  0  0  0  0  0  0
    7.7500   -1.3542    0.0000 O   0  0  0  0  0  0  0  0  0  0  0  0
    8.5500   -1.5542    0.0000 C   0  0  0  0  0  0  0  0  0  0  0  0
  2  1  2  0
  3  5  1  0
  4  1  1  0
  5  2  1  0
  6  1  1  0
  7  2  1  0
  8  3  2  0
  9  4  1  0
 10  4  2  0
 11  6  2  0
 12 16  2  0
 13  3  1  0
 14 11  1  0
 15  9  2  0
 16 10  1  0
 17 12  1  0
 18 11  1  0
 19 18  1  0
  7 14  2  0
 15 12  1  0
M  END

> <chembl_id>
CHEMBL427797

> <chembl_pref_name>
None

$$$$

     RDKit          2D

 19 20  0  0  0  0  0  0  0  0999 V2000
    6.0167   -4.6375    0.0000 C   0  0  0  0  0  0  0  0  0  0  0  0
    4.3667   -4.5792    0.0000 C   0  0  0  0  0  0  0  0  0  0  0  0
    5.6250   -3.9042    0.0000 C   0  0  0  0  0  0  0  0  0  0  0  0
    4.8042   -3.8792    0.0000 C   0  0  0  0  0  0  0  0  0  0  0  0
    7.5042   -5.1542    0.0000 C   0  0  0  0  0  0  0  0  0  0  0  0
    6.8417   -4.6667    0.0000 C   0  0  0  0  0  0  0  0  0  0  0  0
    3.5500   -4.5500    0.0000 C   0  0  0  0  0  0  0  0  0  0  0  0
    5.5792   -5.3375    0.0000 C   0  0  0  0  0  0  0  0  0  0  0  0
    4.7542   -5.3042    0.0000 C   0  0  0  0  0  0  0  0  0  0  0  0
    7.4125   -5.9750    0.0000 O   0  0  0  0  0  0  0  0  0  0  0  0
    3.1042   -5.2542    0.0000 C   0  0  0  0  0  0  0  0  0  0  0  0
    3.1625   -3.8167    0.0000 C   0  0  0  0  0  0  0  0  0  0  0  0
    1.8917   -4.4875    0.0000 C   0  0  0  0  0  0  0  0  0  0  0  0
    8.2625   -4.8250    0.0000 O   0  0  0  0  0  0  0  0  0  0  0  0
    6.0625   -3.2042    0.0000 O   0  0  0  0  0  0  0  0  0  0  0  0
    2.3417   -3.7917    0.0000 C   0  0  0  0  0  0  0  0  0  0  0  0
    2.2792   -5.2167    0.0000 C   0  0  0  0  0  0  0  0  0  0  0  0
    1.0667   -4.4542    0.0000 Cl  0  0  0  0  0  0  0  0  0  0  0  0
    6.8875   -3.2292    0.0000 C   0  0  0  0  0  0  0  0  0  0  0  0
  2  9  2  0
  3  1  1  0
  4  3  2  0
  5  6  1  0
  6  1  1  0
  7  2  1  0
  8  1  2  0
  9  8  1  0
 10  5  2  0
 11  7  1  0
 12  7  2  0
 13 16  2  0
 14  5  1  0
 15  3  1  0
 16 12  1  0
 17 11  2  0
 18 13  1  0
 19 15  1  0
  4  2  1  0
 17 13  1  0
M  END

> <chembl_id>
CHEMBL6988

> <chembl_pref_name>
None

$$$$

     RDKit          2D

 40 43  0  0  1  0  0  0  0  0999 V2000
    0.4417   -1.7417    0.0000 C   0  0  0  0  0  0  0  0  0  0  0  0
    1.9417   -1.8167    0.0000 C   0  0  0  0  0  0  0  0  0  0  0  0
    0.8542   -2.4417    0.0000 C   0  0  0  0  0  0  0  0  0  0  0  0
    1.9667   -2.7292    0.0000 C   0  0  0  0  0  0  0  0  0  0  0  0
    0.4417   -3.1542    0.0000 C   0  0  0  0  0  0  0  0  0  0  0  0
    1.2417   -3.3667    0.0000 C   0  0  0  0  0  0  0  0  0  0  0  0
    0.7792   -1.3542    0.0000 C   0  0  0  0  0  0  0  0  0  0  0  0
   -0.3958   -1.7542    0.0000 C   0  0  0  0  0  0  0  0  0  0  0  0
    2.7667   -3.1542    0.0000 C   0  0  0  0  0  0  0  0  0  0  0  0
    1.5292   -1.3542    0.0000 C   0  0  0  0  0  0  0  0  0  0  0  0
   -0.7958   -2.4667    0.0000 C   0  0  0  0  0  0  0  0  0  0  0  0
   -0.3708   -3.1792    0.0000 C   0  0  0  0  0  0  0  0  0  0  0  0
    3.5417   -2.6667    0.0000 C   0  0  0  0  0  0  0  0  0  0  0  0
    2.7042   -1.3417    0.0000 C   0  0  0  0  0  0  0  0  0  0  0  0
    1.2292   -4.1917    0.0000 O   0  0  0  0  0  0  0  0  0  0  0  0
    5.0792   -2.7167    0.0000 C   0  0  0  0  0  0  0  0  0  0  0  0
    4.3417   -3.0917    0.0000 O   0  0  0  0  0  0  0  0  0  0  0  0
    5.1167   -1.8917    0.0000 C   0  0  0  0  0  0  0  0  0  0  0  0
    0.8167   -4.9042    0.0000 C   0  0  0  0  0  0  0  0  0  0  0  0
    5.8542   -1.5042    0.0000 C   0  0  0  0  0  0  0  0  0  0  0  0
    3.5042   -1.7542    0.0000 C   0  0  0  0  0  0  0  0  0  0  0  0
   -1.6208   -2.4792    0.0000 O   0  0  0  0  0  0  0  0  0  0  0  0
    2.8042   -4.0542    0.0000 C   0  0  0  0  0  0  0  0  0  0  0  0
    5.7792   -3.1542    0.0000 O   0  0  0  0  0  0  0  0  0  0  0  0
   -0.0083   -4.9000    0.0000 O   0  0  0  0  0  0  0  0  0  0  0  0
    0.4417   -0.6042    0.0000 O   0  0  0  0  0  0  0  0  0  0  0  0
    1.9417   -0.6417    0.0000 O   0  0  0  0  0  0  0  0  0  0  0  0
    2.1542   -1.0167    0.0000 C   0  0  0  0  0  0  0  0  0  0  0  0
    1.4417   -1.8542    0.0000 C   0  0  0  0  0  0  0  0  0  0  0  0
    1.4417   -3.0292    0.0000 C   0  0  0  0  0  0  0  0  0  0  0  0
    5.8917   -0.6792    0.0000 C   0  0  0  0  0  0  0  0  0  0  0  0
   -0.8083   -1.0417    0.0000 C   0  0  0  0  0  0  0  0  0  0  0  0
    1.2250   -5.6250    0.0000 C   0  0  0  0  0  0  0  0  0  0  0  0
    5.1917   -0.2292    0.0000 C   0  0  0  0  0  0  0  0  0  0  0  0
    6.6167   -0.3042    0.0000 C   0  0  0  0  0  0  0  0  0  0  0  0
    5.2292    0.5833    0.0000 C   0  0  0  0  0  0  0  0  0  0  0  0
    6.6542    0.5208    0.0000 C   0  0  0  0  0  0  0  0  0  0  0  0
    5.9667    0.9708    0.0000 C   0  0  0  0  0  0  0  0  0  0  0  0
    1.9667   -3.5542    0.0000 H   0  0  0  0  0  0  0  0  0  0  0  0
    0.0292   -3.8667    0.0000 H   0  0  0  0  0  0  0  0  0  0  0  0
  2 10  1  0
  3  1  1  0
  4  2  1  0
  5  3  1  0
  6  5  1  0
  7  1  1  0
  8  1  2  0
  9  4  1  0
 10  7  1  0
 11  8  1  0
 12 11  1  0
 13 21  1  0
 14  2  1  0
  6 15  1  6
 16 17  1  0
 13 17  1  6
 18 16  1  0
 19 15  1  0
 20 18  2  0
 21 14  1  0
 22 11  2  0
 23  9  2  0
 24 16  2  0
 25 19  2  0
  7 26  1  1
 10 27  1  6
  2 28  1  1
  3 29  1  0
  3 30  1  0
 31 20  1  0
 32  8  1  0
 33 19  1  0
 34 31  1  0
 35 31  2  0
 36 34  2  0
 37 35  1  0
 38 37  2  0
  4 39  1  6
  5 40  1  1
  5 12  1  0
  6  4  1  0
 13  9  1  0
 36 38  1  0
M  END

> <chembl_id>
CHEMBL6851

> <chembl_pref_name>
None

$$$$

     RDKit          2D

 19 20  0  0  0  0  0  0  0  0999 V2000
    5.5792   -5.3375    0.0000 C   0  0  0  0  0  0  0  0  0  0  0  0
    4.7542   -5.3042    0.0000 C   0  0  0  0  0  0  0  0  0  0  0  0
    4.3667   -4.5792    0.0000 C   0  0  0  0  0  0  0  0  0  0  0  0
    6.7875   -6.1000    0.0000 C   0  0  0  0  0  0  0  0  0  0  0  0
    5.9667   -6.0667    0.0000 C   0  0  0  0  0  0  0  0  0  0  0  0
    3.5500   -4.5500    0.0000 C   0  0  0  0  0  0  0  0  0  0  0  0
    6.0167   -4.6375    0.0000 C   0  0  0  0  0  0  0  0  0  0  0  0
    4.8042   -3.8792    0.0000 C   0  0  0  0  0  0  0  0  0  0  0  0
    7.1750   -6.8250    0.0000 O   0  0  0  0  0  0  0  0  0  0  0  0
    5.6250   -3.9042    0.0000 C   0  0  0  0  0  0  0  0  0  0  0  0
    3.1042   -5.2542    0.0000 C   0  0  0  0  0  0  0  0  0  0  0  0
    3.1625   -3.8167    0.0000 C   0  0  0  0  0  0  0  0  0  0  0  0
    1.8917   -4.4875    0.0000 C   0  0  0  0  0  0  0  0  0  0  0  0
    7.2292   -5.4000    0.0000 O   0  0  0  0  0  0  0  0  0  0  0  0
    2.3417   -3.7917    0.0000 C   0  0  0  0  0  0  0  0  0  0  0  0
    2.2792   -5.2167    0.0000 C   0  0  0  0  0  0  0  0  0  0  0  0
    1.0667   -4.4542    0.0000 Cl  0  0  0  0  0  0  0  0  0  0  0  0
    6.8417   -4.6667    0.0000 O   0  0  0  0  0  0  0  0  0  0  0  0
    7.4250   -4.0792    0.0000 C   0  0  0  0  0  0  0  0  0  0  0  0
  2  1  1  0
  3  2  2  0
  4  5  1  0
  5  1  1  0
  6  3  1  0
  7  1  2  0
  8 10  2  0
  9  4  2  0
 10  7  1  0
 11  6  1  0
 12  6  2  0
 13 15  2  0
 14  4  1  0
 15 12  1  0
 16 11  2  0
 17 13  1  0
 18  7  1  0
 19 18  1  0
  3  8  1  0
 13 16  1  0
M  END

> <chembl_id>
CHEMBL6672

> <chembl_pref_name>
None

$$$$

     RDKit          2D

 21 22  0  0  0  0  0  0  0  0999 V2000
    4.2250   -1.4667    0.0000 Cl  0  0  0  0  0  0  0  0  0  0  0  0
    1.5875   -2.2375    0.0000 C   0  0  0  0  0  0  0  0  0  0  0  0
    1.5875   -1.6542    0.0000 C   0  0  0  0  0  0  0  0  0  0  0  0
    2.0917   -1.3542    0.0000 C   0  0  0  0  0  0  0  0  0  0  0  0
    2.0917   -2.5292    0.0000 C   0  0  0  0  0  0  0  0  0  0  0  0
    2.6000   -2.2375    0.0000 C   0  0  0  0  0  0  0  0  0  0  0  0
    2.6000   -1.6500    0.0000 C   0  0  0  0  0  0  0  0  0  0  0  0
    1.0875   -2.5292    0.0000 O   0  0  0  0  0  0  0  0  0  0  0  0
    1.0875   -1.3542    0.0000 C   0  0  0  0  0  0  0  0  0  0  0  0
    0.5792   -2.2375    0.0000 C   0  0  0  0  0  0  0  0  0  0  0  0
    0.5792   -1.6500    0.0000 C   0  0  0  0  0  0  0  0  0  0  0  0
    2.0875   -0.7667    0.0000 C   0  0  0  0  0  0  0  0  0  0  0  0
    3.1542   -2.4167    0.0000 O   0  0  0  0  0  0  0  0  0  0  0  0
    2.5917   -0.4792    0.0000 N   0  0  0  0  0  0  0  0  0  0  0  0
    3.1542   -1.4667    0.0000 C   0  0  0  0  0  0  0  0  0  0  0  0
    3.5000   -1.9417    0.0000 C   0  0  0  0  0  0  0  0  0  0  0  0
    0.0667   -2.5292    0.0000 O   0  0  0  0  0  0  0  0  0  0  0  0
    2.0917   -3.1125    0.0000 O   0  0  0  0  0  0  0  0  0  0  0  0
    3.3250   -0.5125    0.0000 C   0  0  0  0  0  0  0  0  0  0  0  0
    3.0167   -1.0000    0.0000 C   0  0  0  0  0  0  0  0  0  0  0  0
    1.5875   -3.4042    0.0000 C   0  0  0  0  0  0  0  0  0  0  0  0
  3  2  2  0
  4  3  1  0
  5  2  1  0
  6  5  2  0
  7  6  1  0
  8  2  1  0
  9  3  1  0
 10  8  1  0
 11 10  1  0
 12  4  1  0
 13  6  1  0
 14 12  1  0
 15  7  1  0
 16 13  1  0
 17 10  2  0
 18  5  1  0
 19 14  1  0
 20 14  1  0
 21 18  1  0
  9 11  2  0
  4  7  2  0
 16 15  2  0
M  END

> <chembl_id>
CHEMBL267498

> <chembl_pref_name>
None

$$$$

     RDKit          2D

 12 12  0  0  0  0  0  0  0  0999 V2000
    4.6290   -3.6685    0.0000 C   0  0  0  0  0  0  0  0  0  0  0  0
    4.6278   -4.4954    0.0000 C   0  0  0  0  0  0  0  0  0  0  0  0
    5.3422   -4.9079    0.0000 C   0  0  0  0  0  0  0  0  0  0  0  0
    6.0582   -4.4949    0.0000 C   0  0  0  0  0  0  0  0  0  0  0  0
    6.0553   -3.6649    0.0000 C   0  0  0  0  0  0  0  0  0  0  0  0
    5.3404   -3.2559    0.0000 C   0  0  0  0  0  0  0  0  0  0  0  0
    5.3379   -2.4315    0.0000 S   0  0  0  0  0  0  0  0  0  0  0  0
    6.0507   -2.0171    0.0000 N   0  0  0  0  0  0  0  0  0  0  0  0
    4.5346   -2.6400    0.0000 O   0  0  0  0  0  0  0  0  0  0  0  0
    4.9177   -1.7114    0.0000 O   0  0  0  0  0  0  0  0  0  0  0  0
    5.3420   -5.7324    0.0000 N   0  0  0  0  0  0  0  0  0  0  0  0
    6.7728   -4.9060    0.0000 Br  0  0  0  0  0  0  0  0  0  0  0  0
  6  1  1  0
  1  2  2  0
  6  7  1  0
  3  4  2  0
  7  8  1  0
  7  9  2  0
  4  5  1  0
  7 10  2  0
  2  3  1  0
  3 11  1  0
  5  6  2  0
  4 12  1  0
M  END

> <chembl_id>
CHEMBL6724

> <chembl_pref_name>
None

$$$$

     RDKit          2D

 12 12  0  0  0  0  0  0  0  0999 V2000
   -5.4857   -3.6603    0.0000 C   0  0  0  0  0  0  0  0  0  0  0  0
   -5.4869   -4.4872    0.0000 C   0  0  0  0  0  0  0  0  0  0  0  0
   -4.7725   -4.8998    0.0000 C   0  0  0  0  0  0  0  0  0  0  0  0
   -4.0564   -4.4868    0.0000 C   0  0  0  0  0  0  0  0  0  0  0  0
   -4.0593   -3.6567    0.0000 C   0  0  0  0  0  0  0  0  0  0  0  0
   -4.7743   -3.2478    0.0000 C   0  0  0  0  0  0  0  0  0  0  0  0
   -4.7767   -2.4233    0.0000 S   0  0  0  0  0  0  0  0  0  0  0  0
   -4.0639   -2.0089    0.0000 N   0  0  0  0  0  0  0  0  0  0  0  0
   -5.5800   -2.6318    0.0000 O   0  0  0  0  0  0  0  0  0  0  0  0
   -5.1969   -1.7032    0.0000 O   0  0  0  0  0  0  0  0  0  0  0  0
   -4.7727   -5.7243    0.0000 N   0  0  0  0  0  0  0  0  0  0  0  0
   -3.3417   -4.8978    0.0000 F   0  0  0  0  0  0  0  0  0  0  0  0
  6  1  1  0
  1  2  2  0
  6  7  1  0
  3  4  2  0
  7  8  1  0
  7  9  2  0
  4  5  1  0
  7 10  2  0
  2  3  1  0
  3 11  1  0
  5  6  2  0
  4 12  1  0
M  END

> <chembl_id>
CHEMBL6853

> <chembl_pref_name>
None

$$$$

     RDKit          2D

 17 19  0  0  0  0  0  0  0  0999 V2000
    2.5478   -4.1993    0.0000 N   0  0  0  0  0  0  0  0  0  0  0  0
    3.2677   -5.4369    0.0000 C   0  0  0  0  0  0  0  0  0  0  0  0
    3.2600   -4.6080    0.0000 C   0  0  0  0  0  0  0  0  0  0  0  0
    2.5555   -5.8533    0.0000 N   0  0  0  0  0  0  0  0  0  0  0  0
    1.8356   -4.6157    0.0000 C   0  0  0  0  0  0  0  0  0  0  0  0
    3.9839   -5.8456    0.0000 N   0  0  0  0  0  0  0  0  0  0  0  0
    1.8356   -5.4369    0.0000 C   0  0  0  0  0  0  0  0  0  0  0  0
    2.5438   -3.3703    0.0000 O   0  0  0  0  0  0  0  0  0  0  0  0
    5.4083   -6.6628    0.0000 N   0  0  0  0  0  0  0  0  0  0  0  0
    4.6921   -5.4252    0.0000 C   0  0  0  0  0  0  0  0  0  0  0  0
    3.9839   -6.6706    0.0000 C   0  0  0  0  0  0  0  0  0  0  0  0
    1.1234   -4.1993    0.0000 C   0  0  0  0  0  0  0  0  0  0  0  0
    1.1234   -5.8572    0.0000 C   0  0  0  0  0  0  0  0  0  0  0  0
    4.6961   -7.0792    0.0000 C   0  0  0  0  0  0  0  0  0  0  0  0
    5.4083   -5.8416    0.0000 C   0  0  0  0  0  0  0  0  0  0  0  0
    0.4112   -4.6157    0.0000 C   0  0  0  0  0  0  0  0  0  0  0  0
    0.4112   -5.4447    0.0000 C   0  0  0  0  0  0  0  0  0  0  0  0
  2  3  1  0
  3  1  2  0
  4  7  1  0
  5  1  1  0
  6  2  1  0
  7  5  1  0
  8  1  1  0
  9 14  1  0
 10  6  1  0
 11  6  1  0
 12  5  2  0
 13  7  2  0
 14 11  1  0
 15 10  1  0
 16 12  1  0
 17 16  2  0
  4  2  2  0
 13 17  1  0
  9 15  1  0
M  CHG  2   1   1   8  -1
M  END

> <chembl_id>
CHEMBL266242

> <chembl_pref_name>
None

$$$$

     RDKit          2D

 26 27  0  0  0  0  0  0  0  0999 V2000
    0.1792   -3.6167    0.0000 N   0  0  0  0  0  0  0  0  0  0  0  0
    0.0542   -4.5167    0.0000 C   0  0  0  0  0  0  0  0  0  0  0  0
    1.6875   -3.7542    0.0000 C   0  0  0  0  0  0  0  0  0  0  0  0
   -0.7250   -4.7792    0.0000 C   0  0  0  0  0  0  0  0  0  0  0  0
    0.9667   -3.3542    0.0000 C   0  0  0  0  0  0  0  0  0  0  0  0
    2.3917   -3.3292    0.0000 O   0  0  0  0  0  0  0  0  0  0  0  0
    3.8042   -2.4792    0.0000 N   0  0  0  0  0  0  0  0  0  0  0  0
   -0.8875   -5.5917    0.0000 C   0  0  0  0  0  0  0  0  0  0  0  0
    0.6750   -5.0542    0.0000 O   0  0  0  0  0  0  0  0  0  0  0  0
    1.7000   -4.5792    0.0000 O   0  0  0  0  0  0  0  0  0  0  0  0
   -1.3458   -4.2417    0.0000 O   0  0  0  0  0  0  0  0  0  0  0  0
    3.8250   -3.3042    0.0000 C   0  0  0  0  0  0  0  0  0  0  0  0
    3.1167   -3.7292    0.0000 C   0  0  0  0  0  0  0  0  0  0  0  0
   -0.4375   -3.0792    0.0000 C   0  0  0  0  0  0  0  0  0  0  0  0
    1.1250   -2.5542    0.0000 C   0  0  0  0  0  0  0  0  0  0  0  0
    4.5167   -2.0667    0.0000 C   0  0  0  0  0  0  0  0  0  0  0  0
    3.0875   -2.0917    0.0000 C   0  0  0  0  0  0  0  0  0  0  0  0
   -1.6708   -5.8542    0.0000 C   0  0  0  0  0  0  0  0  0  0  0  0
   -0.2708   -6.1375    0.0000 C   0  0  0  0  0  0  0  0  0  0  0  0
   -1.6250   -5.2292    0.0000 C   0  0  0  0  0  0  0  0  0  0  0  0
    3.1292   -4.5542    0.0000 C   0  0  0  0  0  0  0  0  0  0  0  0
   -0.2750   -2.2667    0.0000 C   0  0  0  0  0  0  0  0  0  0  0  0
    4.5042   -1.2417    0.0000 C   0  0  0  0  0  0  0  0  0  0  0  0
    3.0750   -1.2625    0.0000 C   0  0  0  0  0  0  0  0  0  0  0  0
    0.5042   -2.0042    0.0000 C   0  0  0  0  0  0  0  0  0  0  0  0
    3.7792   -0.8417    0.0000 C   0  0  0  0  0  0  0  0  0  0  0  0
  2  1  1  0
  3  5  1  0
  4  2  1  0
  5  1  1  0
  6  3  1  0
  7 12  1  0
  8  4  1  0
  9  2  2  0
 10  3  2  0
 11  4  2  0
 12 13  1  0
 13  6  1  0
 14  1  1  0
 15  5  1  0
 16  7  1  0
 17  7  1  0
 18  8  1  0
 19  8  1  0
 20  8  1  0
 21 13  1  0
 22 14  1  0
 23 16  1  0
 24 17  1  0
 25 22  1  0
 26 24  1  0
 15 25  1  0
 23 26  1  0
M  END

> <chembl_id>
CHEMBL266301

> <chembl_pref_name>
None

$$$$

     RDKit          2D

 39 43  0  0  0  0  0  0  0  0999 V2000
    3.5963    1.5077    0.0000 C   0  0  0  0  0  0  0  0  0  0  0  0
    4.3108    1.0952    0.0000 C   0  0  0  0  0  0  0  0  0  0  0  0
    4.3108    0.2702    0.0000 C   0  0  0  0  0  0  0  0  0  0  0  0
    3.5963   -0.1423    0.0000 C   0  0  0  0  0  0  0  0  0  0  0  0
    2.1673   -0.1423    0.0000 C   0  0  0  0  0  0  0  0  0  0  0  0
    0.7384   -0.1423    0.0000 C   0  0  0  0  0  0  0  0  0  0  0  0
   -0.6905   -0.1423    0.0000 C   0  0  0  0  0  0  0  0  0  0  0  0
   -1.4050    0.2702    0.0000 C   0  0  0  0  0  0  0  0  0  0  0  0
   -1.4050    1.0952    0.0000 C   0  0  0  0  0  0  0  0  0  0  0  0
   -0.6905    1.5077    0.0000 C   0  0  0  0  0  0  0  0  0  0  0  0
    0.7384    1.5077    0.0000 C   0  0  0  0  0  0  0  0  0  0  0  0
    2.1673    1.5077    0.0000 C   0  0  0  0  0  0  0  0  0  0  0  0
   -2.2295    1.1240    0.0000 C   0  0  0  0  0  0  0  0  0  0  0  0
   -2.6667    0.4244    0.0000 C   0  0  0  0  0  0  0  0  0  0  0  0
    2.8818    1.0952    0.0000 C   0  0  0  0  0  0  0  0  0  0  0  0
    2.8818    0.2702    0.0000 C   0  0  0  0  0  0  0  0  0  0  0  0
    1.4529    0.2702    0.0000 C   0  0  0  0  0  0  0  0  0  0  0  0
    1.4529    1.0952    0.0000 C   0  0  0  0  0  0  0  0  0  0  0  0
    0.0239    1.0952    0.0000 C   0  0  0  0  0  0  0  0  0  0  0  0
    0.0239    0.2702    0.0000 C   0  0  0  0  0  0  0  0  0  0  0  0
    2.8818   -1.3798    0.0000 C   0  0  0  0  0  0  0  0  0  0  0  0
    3.5963   -0.9673    0.0000 O   0  0  0  0  0  0  0  0  0  0  0  0
    2.1673   -0.9673    0.0000 O   0  0  0  0  0  0  0  0  0  0  0  0
    0.7384   -0.9673    0.0000 O   0  0  0  0  0  0  0  0  0  0  0  0
   -0.6905   -0.9673    0.0000 O   0  0  0  0  0  0  0  0  0  0  0  0
   -1.8422    1.7949    0.0000 O   0  0  0  0  0  0  0  0  0  0  0  0
    0.7384    2.3327    0.0000 O   0  0  0  0  0  0  0  0  0  0  0  0
    2.1673    2.3327    0.0000 O   0  0  0  0  0  0  0  0  0  0  0  0
   -2.6168    1.8525    0.0000 O   0  0  0  0  0  0  0  0  0  0  0  0
   -3.4912    0.4532    0.0000 O   0  0  0  0  0  0  0  0  0  0  0  0
   -1.4050   -1.3798    0.0000 C   0  0  0  0  0  0  0  0  0  0  0  0
   -1.4050   -2.2048    0.0000 C   0  0  0  0  0  0  0  0  0  0  0  0
   -2.1195   -2.6173    0.0000 C   0  0  0  0  0  0  0  0  0  0  0  0
   -2.8340   -2.2048    0.0000 C   0  0  0  0  0  0  0  0  0  0  0  0
   -2.8340   -1.3798    0.0000 C   0  0  0  0  0  0  0  0  0  0  0  0
   -3.5484   -0.9673    0.0000 C   0  0  0  0  0  0  0  0  0  0  0  0
   -3.5484   -2.6173    0.0000 O   0  0  0  0  0  0  0  0  0  0  0  0
   -2.1195   -0.9673    0.0000 O   0  0  0  0  0  0  0  0  0  0  0  0
   -2.1195   -3.4423    0.0000 N   0  0  0  0  0  0  0  0  0  0  0  0
  1  2  2  0
  1 15  1  0
  2  3  1  0
  3  4  2  0
 16  4  1  0
  4 22  1  0
 16  5  1  0
 17  5  1  0
  5 23  2  0
 17  6  2  0
 20  6  1  0
  6 24  1  0
  7  8  1  0
 20  7  1  0
  7 25  1  1
  8  9  1  0
 10  9  1  0
  9 13  1  6
  9 26  1  1
 10 19  1  0
 11 18  2  0
 11 19  1  0
 11 27  1  0
 12 15  1  0
 12 18  1  0
 12 28  2  0
 13 14  1  0
 13 29  2  0
 14 30  1  0
 15 16  2  0
 17 18  1  0
 19 20  2  0
 21 22  1  0
 31 25  1  1
 31 32  1  0
 31 38  1  0
 32 33  1  0
 33 34  1  0
 33 39  1  6
 34 35  1  0
 34 37  1  1
 35 36  1  6
 35 38  1  0
M  END

> <chembl_id>
CHEMBL417

> <chembl_pref_name>
EPIRUBICIN

$$$$

     RDKit          2D

 71 77  0  0  1  0  0  0  0  0999 V2000
    3.6167   -3.3875    0.0000 S   0  0  0  0  0  0  0  0  0  0  0  0
    5.0667   -3.4417    0.0000 N   0  0  0  0  0  0  0  0  0  0  0  0
    4.3542   -2.9917    0.0000 C   0  0  0  0  0  0  0  0  0  0  0  0
    4.7792   -2.2750    0.0000 C   0  0  0  0  0  0  0  0  0  0  0  0
    5.5125   -2.7292    0.0000 C   0  0  0  0  0  0  0  0  0  0  0  0
   -1.4083   -1.2875    0.0000 C   0  0  0  0  0  0  0  0  0  0  0  0
   -1.4083   -2.1417    0.0000 C   0  0  0  0  0  0  0  0  0  0  0  0
    5.0625   -4.2875    0.0000 C   0  0  0  0  0  0  0  0  0  0  0  0
    4.3292   -4.6792    0.0000 C   0  0  0  0  0  0  0  0  0  0  0  0
   -2.1458   -2.5750    0.0000 C   0  0  0  0  0  0  0  0  0  0  0  0
   -2.1458   -0.8625    0.0000 C   0  0  0  0  0  0  0  0  0  0  0  0
    0.0792   -2.1417    0.0000 C   0  0  0  0  0  0  0  0  0  0  0  0
    0.0792   -1.2875    0.0000 C   0  0  0  0  0  0  0  0  0  0  0  0
   -2.8958   -2.1417    0.0000 C   0  0  0  0  0  0  0  0  0  0  0  0
   -0.6625   -0.8625    0.0000 C   0  0  0  0  0  0  0  0  0  0  0  0
   -0.6625   -2.5750    0.0000 C   0  0  0  0  0  0  0  0  0  0  0  0
   -2.8958   -1.2875    0.0000 C   0  0  0  0  0  0  0  0  0  0  0  0
    5.7875   -4.7375    0.0000 C   0  0  0  0  0  0  0  0  0  0  0  0
    1.5667   -1.2875    0.0000 C   0  0  0  0  0  0  0  0  0  0  0  0
    3.6042   -4.2292    0.0000 C   0  0  0  0  0  0  0  0  0  0  0  0
    4.8167   -1.4167    0.0000 C   0  0  0  0  0  0  0  0  0  0  0  0
    0.8292   -2.5750    0.0000 C   0  0  0  0  0  0  0  0  0  0  0  0
    1.8542   -5.2417    0.0000 C   0  0  0  0  0  0  0  0  0  0  0  0
    0.8292   -0.8625    0.0000 C   0  0  0  0  0  0  0  0  0  0  0  0
    1.2375   -4.1667    0.0000 C   0  0  0  0  0  0  0  0  0  0  0  0
    1.8625   -4.5292    0.0000 C   0  0  0  0  0  0  0  0  0  0  0  0
    0.6167   -4.5167    0.0000 O   0  0  0  0  0  0  0  0  0  0  0  0
    1.5667   -2.1417    0.0000 C   0  0  0  0  0  0  0  0  0  0  0  0
    1.2292   -5.6000    0.0000 C   0  0  0  0  0  0  0  0  0  0  0  0
    3.0917   -5.2542    0.0000 C   0  0  0  0  0  0  0  0  0  0  0  0
    2.4667   -5.6042    0.0000 N   0  0  0  0  0  0  0  0  0  0  0  0
    4.1292   -0.1042    0.0000 C   0  0  0  0  0  0  0  0  0  0  0  0
    0.6167   -5.2417    0.0000 C   0  0  0  0  0  0  0  0  0  0  0  0
    1.9917   -0.5542    0.0000 C   0  0  0  0  0  0  0  0  0  0  0  0
    2.8792   -3.7667    0.0000 O   0  0  0  0  0  0  0  0  0  0  0  0
    3.8500   -2.5667    0.0000 O   0  0  0  0  0  0  0  0  0  0  0  0
    0.8167   -3.4292    0.0000 O   0  0  0  0  0  0  0  0  0  0  0  0
    6.5250   -4.3375    0.0000 O   0  0  0  0  0  0  0  0  0  0  0  0
    4.1000   -0.9625    0.0000 O   0  0  0  0  0  0  0  0  0  0  0  0
    4.2917   -5.3292    0.0000 C   0  0  0  0  0  0  0  0  0  0  0  0
    6.3250   -2.5417    0.0000 O   0  0  0  0  0  0  0  0  0  0  0  0
   -2.1458   -0.0042    0.0000 O   0  0  0  0  0  0  0  0  0  0  0  0
   -2.1458   -3.4375    0.0000 O   0  0  0  0  0  0  0  0  0  0  0  0
    3.4167    0.3500    0.0000 C   0  0  0  0  0  0  0  0  0  0  0  0
   -3.6333   -2.5750    0.0000 C   0  0  0  0  0  0  0  0  0  0  0  0
    5.7750   -5.5792    0.0000 O   0  0  0  0  0  0  0  0  0  0  0  0
    3.7042   -5.6167    0.0000 O   0  0  0  0  0  0  0  0  0  0  0  0
    3.1000   -4.5375    0.0000 O   0  0  0  0  0  0  0  0  0  0  0  0
    4.8875    0.2958    0.0000 O   0  0  0  0  0  0  0  0  0  0  0  0
    1.3792    0.0458    0.0000 O   0  0  0  0  0  0  0  0  0  0  0  0
    7.2500   -4.7917    0.0000 C   0  0  0  0  0  0  0  0  0  0  0  0
   -0.6750   -0.0250    0.0000 O   0  0  0  0  0  0  0  0  0  0  0  0
   -0.6708   -3.4292    0.0000 O   0  0  0  0  0  0  0  0  0  0  0  0
    2.3000   -1.7042    0.0000 O   0  0  0  0  0  0  0  0  0  0  0  0
    1.2250   -6.3042    0.0000 O   0  0  0  0  0  0  0  0  0  0  0  0
   -3.6333   -0.8625    0.0000 C   0  0  0  0  0  0  0  0  0  0  0  0
   -3.6375   -3.4292    0.0000 O   0  0  0  0  0  0  0  0  0  0  0  0
    2.8292   -0.4375    0.0000 C   0  0  0  0  0  0  0  0  0  0  0  0
    3.3500   -1.1167    0.0000 O   0  0  0  0  0  0  0  0  0  0  0  0
   -0.0083   -5.6000    0.0000 C   0  0  0  0  0  0  0  0  0  0  0  0
   -4.3833   -1.2875    0.0000 C   0  0  0  0  0  0  0  0  0  0  0  0
    3.4500    1.1750    0.0000 C   0  0  0  0  0  0  0  0  0  0  0  0
    3.5917   -0.4542    0.0000 C   0  0  0  0  0  0  0  0  0  0  0  0
    2.6792   -0.0292    0.0000 C   0  0  0  0  0  0  0  0  0  0  0  0
   -4.3833   -2.1417    0.0000 C   0  0  0  0  0  0  0  0  0  0  0  0
    7.2375   -5.6375    0.0000 C   0  0  0  0  0  0  0  0  0  0  0  0
    7.9792   -5.2375    0.0000 C   0  0  0  0  0  0  0  0  0  0  0  0
    7.9875   -4.4000    0.0000 C   0  0  0  0  0  0  0  0  0  0  0  0
   -4.3958   -3.8667    0.0000 C   0  0  0  0  0  0  0  0  0  0  0  0
    1.6935   -3.0780    0.0000 H   0  0  0  0  0  0  0  0  0  0  0  0
    3.6623   -2.2697    0.0000 H   0  0  0  0  0  0  0  0  0  0  0  0
  2  3  1  0
  3  1  1  0
  4  3  1  0
  5  4  1  0
  6  7  2  0
  7 16  1  0
  8  9  2  0
  9 20  1  0
 10  7  1  0
 11  6  1  0
 12 22  1  0
 13 12  1  0
 14 10  1  0
 15 13  2  0
 16 12  2  0
 17 14  2  0
 18  8  1  0
 19 28  1  0
 20  1  1  0
 21  4  2  0
 22 37  1  0
 23 31  1  6
 24 19  1  0
 25 26  1  0
 26 23  1  0
 27 33  1  0
 28 22  1  0
 29 23  1  0
 30 47  1  0
 31 30  1  0
 32 39  1  0
 33 29  1  0
 19 34  1  0
 35  1  2  0
 36  1  2  0
 37 25  1  0
 38 18  1  0
 39 21  1  0
 40  9  1  0
 41  5  2  0
 42 11  2  0
 43 10  2  0
 44 32  1  0
 45 14  1  0
 46 18  2  0
 47 40  1  0
 48 30  2  0
 49 32  2  0
 50 34  2  0
 51 38  1  0
 52 15  1  0
 53 16  1  0
 19 54  1  6
 29 55  1  1
 56 17  1  0
 57 45  1  0
 58 34  1  0
 59 58  1  0
 33 60  1  6
 61 65  1  0
 62 44  1  0
 63 44  1  0
 64 44  1  0
 65 45  2  0
 66 51  1  0
 67 51  1  0
 68 51  1  0
 69 57  1  0
 22 70  1  1
  8  2  1  0
  5  2  1  0
 27 25  1  0
 24 13  1  0
 15  6  1  0
 11 17  1  0
 56 61  2  0
  3 71  1  6
M  END

> <chembl_id>
CHEMBL216758

> <chembl_pref_name>
None

$$$$

     RDKit          2D

 19 20  0  0  0  0  0  0  0  0999 V2000
    4.7542   -5.3042    0.0000 C   0  0  0  0  0  0  0  0  0  0  0  0
    4.3667   -4.5792    0.0000 C   0  0  0  0  0  0  0  0  0  0  0  0
    5.5792   -5.3375    0.0000 C   0  0  0  0  0  0  0  0  0  0  0  0
    6.7875   -6.1000    0.0000 C   0  0  0  0  0  0  0  0  0  0  0  0
    3.5500   -4.5500    0.0000 C   0  0  0  0  0  0  0  0  0  0  0  0
    5.9667   -6.0667    0.0000 C   0  0  0  0  0  0  0  0  0  0  0  0
    7.1750   -6.8250    0.0000 O   0  0  0  0  0  0  0  0  0  0  0  0
    3.1625   -3.8167    0.0000 C   0  0  0  0  0  0  0  0  0  0  0  0
    3.1042   -5.2542    0.0000 C   0  0  0  0  0  0  0  0  0  0  0  0
    4.3167   -6.0042    0.0000 O   0  0  0  0  0  0  0  0  0  0  0  0
    1.8917   -4.4875    0.0000 C   0  0  0  0  0  0  0  0  0  0  0  0
    7.2292   -5.4000    0.0000 O   0  0  0  0  0  0  0  0  0  0  0  0
    2.3417   -3.7917    0.0000 C   0  0  0  0  0  0  0  0  0  0  0  0
    2.2792   -5.2167    0.0000 C   0  0  0  0  0  0  0  0  0  0  0  0
    1.0667   -4.4542    0.0000 Cl  0  0  0  0  0  0  0  0  0  0  0  0
    4.8042   -3.8792    0.0000 C   0  0  0  0  0  0  0  0  0  0  0  0
    6.0167   -4.6375    0.0000 C   0  0  0  0  0  0  0  0  0  0  0  0
    5.6250   -3.9042    0.0000 C   0  0  0  0  0  0  0  0  0  0  0  0
    3.4917   -5.9750    0.0000 C   0  0  0  0  0  0  0  0  0  0  0  0
  2  1  2  0
  3  1  1  0
  4  6  1  0
  5  2  1  0
  6  3  1  0
  7  4  2  0
  8  5  2  0
  9  5  1  0
 10  1  1  0
 11 14  1  0
 12  4  1  0
 13  8  1  0
 14  9  2  0
 15 11  1  0
 16  2  1  0
 17  3  2  0
 18 17  1  0
 19 10  1  0
 18 16  2  0
 13 11  2  0
M  END

> <chembl_id>
CHEMBL6864

> <chembl_pref_name>
None

$$$$

     RDKit          2D

 25 28  0  0  0  0  0  0  0  0999 V2000
    6.6667   -1.1542    0.0000 S   0  0  0  0  0  0  0  0  0  0  0  0
    6.1542   -2.0625    0.0000 C   0  0  0  0  0  0  0  0  0  0  0  0
    5.1167   -2.0625    0.0000 N   0  0  0  0  0  0  0  0  0  0  0  0
    6.6667   -1.7542    0.0000 C   0  0  0  0  0  0  0  0  0  0  0  0
    5.6292   -1.7625    0.0000 C   0  0  0  0  0  0  0  0  0  0  0  0
    5.1167   -2.6667    0.0000 C   0  0  0  0  0  0  0  0  0  0  0  0
    5.6292   -2.9667    0.0000 N   0  0  0  0  0  0  0  0  0  0  0  0
    6.6667   -0.5542    0.0000 C   0  0  0  0  0  0  0  0  0  0  0  0
    6.1542   -2.6625    0.0000 C   0  0  0  0  0  0  0  0  0  0  0  0
    6.0667   -1.1542    0.0000 O   0  0  0  0  0  0  0  0  0  0  0  0
    7.2667   -1.1542    0.0000 O   0  0  0  0  0  0  0  0  0  0  0  0
    7.1875   -0.2625    0.0000 C   0  0  0  0  0  0  0  0  0  0  0  0
    7.1792    0.3375    0.0000 C   0  0  0  0  0  0  0  0  0  0  0  0
    6.1500   -0.2625    0.0000 C   0  0  0  0  0  0  0  0  0  0  0  0
    5.6292   -1.1625    0.0000 N   0  0  0  0  0  0  0  0  0  0  0  0
    4.5917   -2.9667    0.0000 N   0  0  0  0  0  0  0  0  0  0  0  0
    6.6667    0.6375    0.0000 C   0  0  0  0  0  0  0  0  0  0  0  0
    6.1417    0.3333    0.0000 C   0  0  0  0  0  0  0  0  0  0  0  0
    7.1917   -2.0542    0.0000 C   0  0  0  0  0  0  0  0  0  0  0  0
    6.6750   -2.9625    0.0000 C   0  0  0  0  0  0  0  0  0  0  0  0
    7.1917   -2.6542    0.0000 C   0  0  0  0  0  0  0  0  0  0  0  0
    7.7000    0.6375    0.0000 C   0  0  0  0  0  0  0  0  0  0  0  0
    6.6667    1.2333    0.0000 C   0  0  0  0  0  0  0  0  0  0  0  0
    7.7000    1.2333    0.0000 C   0  0  0  0  0  0  0  0  0  0  0  0
    7.1792    1.5333    0.0000 C   0  0  0  0  0  0  0  0  0  0  0  0
  2  4  1  0
  3  5  2  0
  4  1  1  0
  5  2  1  0
  6  7  2  0
  7  9  1  0
  8  1  1  0
  9  2  2  0
 10  1  2  0
 11  1  2  0
 12  8  2  0
 13 12  1  0
 14  8  1  0
 15  5  1  0
 16  6  1  0
 17 18  1  0
 18 14  2  0
 19  4  2  0
 20 21  2  0
 21 19  1  0
 22 13  2  0
 23 17  2  0
 24 22  1  0
 25 23  1  0
 17 13  1  0
  9 20  1  0
  3  6  1  0
 24 25  2  0
M  END

> <chembl_id>
CHEMBL6693

> <chembl_pref_name>
None

$$$$

     RDKit          2D

 22 23  0  0  0  0  0  0  0  0999 V2000
    4.8292   -1.1625    0.0000 Cl  0  0  0  0  0  0  0  0  0  0  0  0
    2.1917   -1.9375    0.0000 C   0  0  0  0  0  0  0  0  0  0  0  0
    2.1917   -1.3417    0.0000 C   0  0  0  0  0  0  0  0  0  0  0  0
    2.7042   -1.0417    0.0000 C   0  0  0  0  0  0  0  0  0  0  0  0
    2.7042   -2.2375    0.0000 C   0  0  0  0  0  0  0  0  0  0  0  0
    3.2250   -1.9375    0.0000 C   0  0  0  0  0  0  0  0  0  0  0  0
    3.2250   -1.3375    0.0000 C   0  0  0  0  0  0  0  0  0  0  0  0
    1.6792   -2.2375    0.0000 O   0  0  0  0  0  0  0  0  0  0  0  0
    1.6792   -1.0417    0.0000 C   0  0  0  0  0  0  0  0  0  0  0  0
    1.1625   -1.9375    0.0000 C   0  0  0  0  0  0  0  0  0  0  0  0
    1.1625   -1.3375    0.0000 C   0  0  0  0  0  0  0  0  0  0  0  0
    2.7000   -0.4417    0.0000 C   0  0  0  0  0  0  0  0  0  0  0  0
    3.7917   -2.1250    0.0000 O   0  0  0  0  0  0  0  0  0  0  0  0
    3.2167   -0.1417    0.0000 N   0  0  0  0  0  0  0  0  0  0  0  0
    3.7917   -1.1500    0.0000 C   0  0  0  0  0  0  0  0  0  0  0  0
    4.1417   -1.6375    0.0000 C   0  0  0  0  0  0  0  0  0  0  0  0
    0.6417   -2.2375    0.0000 O   0  0  0  0  0  0  0  0  0  0  0  0
    2.7042   -2.8292    0.0000 O   0  0  0  0  0  0  0  0  0  0  0  0
    3.2167    0.4500    0.0000 C   0  0  0  0  0  0  0  0  0  0  0  0
    3.5292   -0.7542    0.0000 C   0  0  0  0  0  0  0  0  0  0  0  0
    3.8417   -0.2542    0.0000 C   0  0  0  0  0  0  0  0  0  0  0  0
    2.1917   -3.1292    0.0000 C   0  0  0  0  0  0  0  0  0  0  0  0
  3  2  2  0
  4  3  1  0
  5  2  1  0
  6  5  2  0
  7  6  1  0
  8  2  1  0
  9  3  1  0
 10  8  1  0
 11 10  1  0
 12  4  1  0
 13  6  1  0
 14 12  1  0
 15  7  1  0
 16 13  1  0
 17 10  2  0
 18  5  1  0
 19 14  1  0
 20 14  1  0
 21 14  1  0
 22 18  1  0
  9 11  2  0
  4  7  2  0
 16 15  2  0
M  CHG  2   1  -1  14   1
M  END

> <chembl_id>
CHEMBL266318

> <chembl_pref_name>
None

$$$$

     RDKit          2D

 30 32  0  0  0  0  0  0  0  0999 V2000
    3.1792    0.0708    0.0000 N   0  0  0  0  0  0  0  0  0  0  0  0
    1.1000    0.0625    0.0000 O   0  0  0  0  0  0  0  0  0  0  0  0
    2.1417    0.0708    0.0000 C   0  0  0  0  0  0  0  0  0  0  0  0
    0.5792    0.3625    0.0000 C   0  0  0  0  0  0  0  0  0  0  0  0
    2.6542    0.3708    0.0000 C   0  0  0  0  0  0  0  0  0  0  0  0
    1.6167    0.3708    0.0000 C   0  0  0  0  0  0  0  0  0  0  0  0
   -0.4583    0.9625    0.0000 C   0  0  0  0  0  0  0  0  0  0  0  0
    4.7375    0.3750    0.0000 C   0  0  0  0  0  0  0  0  0  0  0  0
    0.0542    0.0625    0.0000 C   0  0  0  0  0  0  0  0  0  0  0  0
    0.5792    0.9708    0.0000 C   0  0  0  0  0  0  0  0  0  0  0  0
   -0.4583    0.3625    0.0000 C   0  0  0  0  0  0  0  0  0  0  0  0
    0.0542    1.2708    0.0000 C   0  0  0  0  0  0  0  0  0  0  0  0
    2.1417   -0.5292    0.0000 O   0  0  0  0  0  0  0  0  0  0  0  0
    5.2542    0.0750    0.0000 C   0  0  0  0  0  0  0  0  0  0  0  0
    4.2167    0.0708    0.0000 C   0  0  0  0  0  0  0  0  0  0  0  0
    3.7000    0.3708    0.0000 C   0  0  0  0  0  0  0  0  0  0  0  0
   -2.0208    1.2625    0.0000 O   0  0  0  0  0  0  0  0  0  0  0  0
   -3.7958    1.6875    0.0000 C   0  0  0  0  0  0  0  0  0  0  0  0
   -3.0583    1.2625    0.0000 C   0  0  0  0  0  0  0  0  0  0  0  0
   -2.5375    0.9625    0.0000 C   0  0  0  0  0  0  0  0  0  0  0  0
   -0.9833    1.2625    0.0000 C   0  0  0  0  0  0  0  0  0  0  0  0
   -3.2208    1.8458    0.0000 C   0  0  0  0  0  0  0  0  0  0  0  0
   -3.6375    1.1083    0.0000 C   0  0  0  0  0  0  0  0  0  0  0  0
   -1.4958    0.9625    0.0000 C   0  0  0  0  0  0  0  0  0  0  0  0
    5.7750    0.3750    0.0000 C   0  0  0  0  0  0  0  0  0  0  0  0
    5.2542   -0.5292    0.0000 C   0  0  0  0  0  0  0  0  0  0  0  0
    3.6917    0.9708    0.0000 C   0  0  0  0  0  0  0  0  0  0  0  0
    6.2917    0.0833    0.0000 C   0  0  0  0  0  0  0  0  0  0  0  0
    5.7750   -0.8292    0.0000 C   0  0  0  0  0  0  0  0  0  0  0  0
    6.2917   -0.5292    0.0000 C   0  0  0  0  0  0  0  0  0  0  0  0
  2  6  1  0
  3  5  1  0
  4  2  1  0
  5  1  1  0
  6  3  1  0
  7 12  1  0
  8 15  1  0
  9  4  2  0
 10  4  1  0
 11  9  1  0
 12 10  2  0
 13  3  1  0
 14  8  1  0
 15 16  1  0
 16  1  1  0
 17 24  1  0
 18 23  1  0
 19 20  1  0
 20 17  1  0
 21  7  1  0
 22 19  1  0
 23 19  1  0
 24 21  1  0
 25 14  1  0
 26 14  2  0
 27 16  1  0
 28 25  2  0
 29 26  1  0
 30 29  2  0
 28 30  1  0
 11  7  2  0
 18 22  1  0
M  END

> <chembl_id>
CHEMBL267220

> <chembl_pref_name>
None

$$$$

     RDKit          2D

 22 25  0  0  0  0  0  0  0  0999 V2000
    2.2042   -1.6500    0.0000 N   0  0  0  0  0  0  0  0  0  0  0  0
    1.4250   -0.5667    0.0000 C   0  0  0  0  0  0  0  0  0  0  0  0
    1.4250   -1.3917    0.0000 C   0  0  0  0  0  0  0  0  0  0  0  0
    2.2042   -0.3125    0.0000 N   0  0  0  0  0  0  0  0  0  0  0  0
    2.6917   -0.9792    0.0000 C   0  0  0  0  0  0  0  0  0  0  0  0
    0.7042   -0.1542    0.0000 C   0  0  0  0  0  0  0  0  0  0  0  0
    0.7042   -1.8125    0.0000 N   0  0  0  0  0  0  0  0  0  0  0  0
    2.4667   -2.4375    0.0000 C   0  0  0  0  0  0  0  0  0  0  0  0
   -0.0083   -0.5750    0.0000 N   0  0  0  0  0  0  0  0  0  0  0  0
    3.2667   -2.6042    0.0000 C   0  0  0  0  0  0  0  0  0  0  0  0
    0.7042    0.6708    0.0000 N   0  0  0  0  0  0  0  0  0  0  0  0
   -0.0083   -1.4000    0.0000 C   0  0  0  0  0  0  0  0  0  0  0  0
   -0.0125    1.9000    0.0000 C   0  0  0  0  0  0  0  0  0  0  0  0
    0.4000    2.6125    0.0000 C   0  0  0  0  0  0  0  0  0  0  0  0
   -0.4250    2.6083    0.0000 C   0  0  0  0  0  0  0  0  0  0  0  0
    3.8167   -1.9917    0.0000 C   0  0  0  0  0  0  0  0  0  0  0  0
   -0.0083    1.0750    0.0000 C   0  0  0  0  0  0  0  0  0  0  0  0
    3.6042   -1.1917    0.0000 F   0  0  0  0  0  0  0  0  0  0  0  0
    3.5250   -3.3917    0.0000 C   0  0  0  0  0  0  0  0  0  0  0  0
    4.6250   -2.1625    0.0000 C   0  0  0  0  0  0  0  0  0  0  0  0
    4.3292   -3.5625    0.0000 C   0  0  0  0  0  0  0  0  0  0  0  0
    4.8792   -2.9500    0.0000 C   0  0  0  0  0  0  0  0  0  0  0  0
  2  3  1  0
  3  1  1  0
  4  5  2  0
  5  1  1  0
  6  2  2  0
  7  3  2  0
  8  1  1  0
  9 12  2  0
 10  8  1  0
 11  6  1  0
 12  7  1  0
 13 17  1  0
 14 13  1  0
 15 13  1  0
 16 10  1  0
 17 11  1  0
 18 16  1  0
 19 10  2  0
 20 16  2  0
 21 19  1  0
 22 21  2  0
  4  2  1  0
  6  9  1  0
 20 22  1  0
 15 14  1  0
M  END

> <chembl_id>
CHEMBL266302

> <chembl_pref_name>
None

$$$$

     RDKit          2D

 27 29  0  0  1  0  0  0  0  0999 V2000
    0.7167   -1.6917    0.0000 N   0  0  0  0  0  0  0  0  0  0  0  0
    0.5542   -2.5000    0.0000 C   0  0  0  0  0  0  0  0  0  0  0  0
    2.1875   -1.7417    0.0000 C   0  0  0  0  0  0  0  0  0  0  0  0
   -0.2250   -2.7667    0.0000 C   0  0  0  0  0  0  0  0  0  0  0  0
    1.4667   -1.3417    0.0000 C   0  0  0  0  0  0  0  0  0  0  0  0
    2.8917   -1.3167    0.0000 O   0  0  0  0  0  0  0  0  0  0  0  0
    4.3042   -0.4667    0.0000 N   0  0  0  0  0  0  0  0  0  0  0  0
    1.1750   -3.0417    0.0000 O   0  0  0  0  0  0  0  0  0  0  0  0
    2.1917   -2.5667    0.0000 O   0  0  0  0  0  0  0  0  0  0  0  0
   -0.8458   -2.2250    0.0000 O   0  0  0  0  0  0  0  0  0  0  0  0
   -0.3875   -3.5750    0.0000 C   0  0  0  0  0  0  0  0  0  0  0  0
    4.3250   -1.2917    0.0000 C   0  0  0  0  0  0  0  0  0  0  0  0
    0.1542   -1.0792    0.0000 C   0  0  0  0  0  0  0  0  0  0  0  0
    3.6167   -1.7167    0.0000 C   0  0  0  0  0  0  0  0  0  0  0  0
    1.3625   -0.5250    0.0000 C   0  0  0  0  0  0  0  0  0  0  0  0
    5.0167   -0.0417    0.0000 C   0  0  0  0  0  0  0  0  0  0  0  0
    3.5875   -0.0667    0.0000 C   0  0  0  0  0  0  0  0  0  0  0  0
    0.5542   -0.3625    0.0000 C   0  0  0  0  0  0  0  0  0  0  0  0
   -1.1708   -3.8375    0.0000 C   0  0  0  0  0  0  0  0  0  0  0  0
    0.2375   -4.1125    0.0000 C   0  0  0  0  0  0  0  0  0  0  0  0
    3.6292   -2.5417    0.0000 C   0  0  0  0  0  0  0  0  0  0  0  0
    3.5792    0.7583    0.0000 C   0  0  0  0  0  0  0  0  0  0  0  0
    5.0042    0.7750    0.0000 C   0  0  0  0  0  0  0  0  0  0  0  0
    0.0792   -4.9167    0.0000 C   0  0  0  0  0  0  0  0  0  0  0  0
   -1.3250   -4.6417    0.0000 C   0  0  0  0  0  0  0  0  0  0  0  0
    4.2875    1.1833    0.0000 C   0  0  0  0  0  0  0  0  0  0  0  0
   -0.7083   -5.1917    0.0000 C   0  0  0  0  0  0  0  0  0  0  0  0
  2  1  1  0
  5  3  1  1
  4  2  1  0
  5  1  1  0
  6  3  1  0
  7 12  1  0
  8  2  2  0
  9  3  2  0
 10  4  2  0
 11  4  1  0
 12 14  1  0
 13  1  1  0
 14  6  1  0
 15  5  1  0
 16  7  1  0
 17  7  1  0
 18 13  1  0
 19 11  2  0
 20 11  1  0
 21 14  1  0
 22 17  1  0
 23 16  1  0
 24 20  2  0
 25 19  1  0
 26 22  1  0
 27 24  1  0
 18 15  1  0
 25 27  2  0
 23 26  1  0
M  END

> <chembl_id>
CHEMBL6683

> <chembl_pref_name>
None

$$$$

     RDKit          2D

 14 14  0  0  0  0  0  0  0  0999 V2000
    5.5660  -21.8955    0.0000 C   0  0  0  0  0  0  0  0  0  0  0  0
    6.2307  -22.3814    0.0000 S   0  0  0  0  0  0  0  0  0  0  0  0
    6.8983  -21.8995    0.0000 C   0  0  0  0  0  0  0  0  0  0  0  0
    6.6462  -21.1156    0.0000 N   0  0  0  0  0  0  0  0  0  0  0  0
    5.8229  -21.1132    0.0000 N   0  0  0  0  0  0  0  0  0  0  0  0
    7.6161  -22.3059    0.0000 S   0  0  0  0  0  0  0  0  0  0  0  0
    7.6236  -23.1310    0.0000 N   0  0  0  0  0  0  0  0  0  0  0  0
    7.9794  -21.5621    0.0000 O   0  0  0  0  0  0  0  0  0  0  0  0
    8.3528  -22.6694    0.0000 O   0  0  0  0  0  0  0  0  0  0  0  0
    5.3399  -20.4443    0.0000 C   0  0  0  0  0  0  0  0  0  0  0  0
    4.8548  -22.3124    0.0000 N   0  0  0  0  0  0  0  0  0  0  0  0
    4.1373  -21.9049    0.0000 C   0  0  0  0  0  0  0  0  0  0  0  0
    3.4256  -22.3225    0.0000 C   0  0  0  0  0  0  0  0  0  0  0  0
    4.1314  -21.0799    0.0000 O   0  0  0  0  0  0  0  0  0  0  0  0
  6  7  1  0
  2  3  1  0
  6  8  2  0
  3  4  2  0
  6  9  2  0
  4  5  1  0
  5 10  1  0
  5  1  1  0
  1 11  2  0
  1  2  1  0
 11 12  1  0
  3  6  1  0
 12 13  1  0
 12 14  2  0
M  END

> <chembl_id>
CHEMBL19

> <chembl_pref_name>
METHAZOLAMIDE

$$$$

     RDKit          2D

 13 13  0  0  0  0  0  0  0  0999 V2000
    6.3042   -4.9375    0.0000 C   0  0  0  0  0  0  0  0  0  0  0  0
    6.9250   -4.5792    0.0000 S   0  0  0  0  0  0  0  0  0  0  0  0
    5.7375   -4.5167    0.0000 S   0  0  0  0  0  0  0  0  0  0  0  0
    5.1625   -4.9375    0.0000 C   0  0  0  0  0  0  0  0  0  0  0  0
    6.0875   -5.6125    0.0000 N   0  0  0  0  0  0  0  0  0  0  0  0
    5.3792   -5.6125    0.0000 N   0  0  0  0  0  0  0  0  0  0  0  0
    4.5500   -4.5792    0.0000 N   0  0  0  0  0  0  0  0  0  0  0  0
    7.5417   -4.9292    0.0000 N   0  0  0  0  0  0  0  0  0  0  0  0
    3.9292   -4.9250    0.0000 C   0  0  0  0  0  0  0  0  0  0  0  0
    6.5750   -3.9667    0.0000 O   0  0  0  0  0  0  0  0  0  0  0  0
    7.2792   -3.9667    0.0000 O   0  0  0  0  0  0  0  0  0  0  0  0
    3.9250   -5.6292    0.0000 O   0  0  0  0  0  0  0  0  0  0  0  0
    3.3250   -4.5625    0.0000 C   0  0  0  0  0  0  0  0  0  0  0  0
  2  1  1  0
  3  1  1  0
  4  3  1  0
  5  1  2  0
  6  5  1  0
  7  4  1  0
  8  2  1  0
  9  7  1  0
 10  2  2  0
 11  2  2  0
 12  9  2  0
 13  9  1  0
  6  4  2  0
M  END

> <chembl_id>
CHEMBL20

> <chembl_pref_name>
ACETAZOLAMIDE

$$$$

     RDKit          2D

  9  9  0  0  0  0  0  0  0  0999 V2000
    6.0750   -2.5667    0.0000 C   0  0  0  0  0  0  0  0  0  0  0  0
    5.3625   -2.9792    0.0000 N   0  0  0  0  0  0  0  0  0  0  0  0
    6.7917   -2.9792    0.0000 N   0  0  0  0  0  0  0  0  0  0  0  0
    5.3625   -1.3292    0.0000 C   0  0  0  0  0  0  0  0  0  0  0  0
    6.0750   -1.7417    0.0000 C   0  0  0  0  0  0  0  0  0  0  0  0
    4.6542   -2.5667    0.0000 C   0  0  0  0  0  0  0  0  0  0  0  0
    4.6542   -1.7417    0.0000 C   0  0  0  0  0  0  0  0  0  0  0  0
    4.6417   -0.9167    0.0000 C   0  0  0  0  0  0  0  0  0  0  0  0
    6.0750   -0.9125    0.0000 C   0  0  0  0  0  0  0  0  0  0  0  0
  2  1  2  0
  3  1  1  0
  4  5  1  0
  5  1  1  0
  6  2  1  0
  7  4  1  0
  8  4  1  0
  9  4  1  0
  6  7  1  0
M  END

> <chembl_id>
CHEMBL6643

> <chembl_pref_name>
None

$$$$

     RDKit          2D

 22 25  0  0  0  0  0  0  0  0999 V2000
    6.1542   -2.0625    0.0000 C   0  0  0  0  0  0  0  0  0  0  0  0
    5.6292   -1.7625    0.0000 C   0  0  0  0  0  0  0  0  0  0  0  0
    5.1167   -2.0625    0.0000 N   0  0  0  0  0  0  0  0  0  0  0  0
    6.1542   -2.6625    0.0000 C   0  0  0  0  0  0  0  0  0  0  0  0
    6.6667   -1.7542    0.0000 C   0  0  0  0  0  0  0  0  0  0  0  0
    5.6292   -2.9667    0.0000 N   0  0  0  0  0  0  0  0  0  0  0  0
    5.1167   -2.6667    0.0000 C   0  0  0  0  0  0  0  0  0  0  0  0
    7.7042   -1.7500    0.0000 S   0  0  0  0  0  0  0  0  0  0  0  0
    7.1917   -2.0542    0.0000 C   0  0  0  0  0  0  0  0  0  0  0  0
    8.2292   -2.0417    0.0000 C   0  0  0  0  0  0  0  0  0  0  0  0
    9.2667   -2.0292    0.0000 C   0  0  0  0  0  0  0  0  0  0  0  0
    8.7417   -1.7417    0.0000 C   0  0  0  0  0  0  0  0  0  0  0  0
    9.2667   -2.6292    0.0000 C   0  0  0  0  0  0  0  0  0  0  0  0
    6.6750   -2.9625    0.0000 C   0  0  0  0  0  0  0  0  0  0  0  0
    8.7542   -2.9417    0.0000 C   0  0  0  0  0  0  0  0  0  0  0  0
    5.6292   -1.1625    0.0000 N   0  0  0  0  0  0  0  0  0  0  0  0
    7.1917   -2.6542    0.0000 C   0  0  0  0  0  0  0  0  0  0  0  0
    8.2292   -2.6417    0.0000 C   0  0  0  0  0  0  0  0  0  0  0  0
    9.7792   -1.7292    0.0000 C   0  0  0  0  0  0  0  0  0  0  0  0
    9.7917   -2.9292    0.0000 C   0  0  0  0  0  0  0  0  0  0  0  0
   10.3000   -2.0250    0.0000 C   0  0  0  0  0  0  0  0  0  0  0  0
   10.3042   -2.6250    0.0000 C   0  0  0  0  0  0  0  0  0  0  0  0
  2  1  1  0
  3  2  2  0
  4  1  2  0
  5  1  1  0
  6  4  1  0
  7  6  2  0
  8  9  1  0
  9  5  2  0
 10  8  1  0
 11 12  2  0
 12 10  1  0
 13 15  2  0
 14  4  1  0
 15 18  1  0
 16  2  1  0
 17  9  1  0
 18 10  2  0
 19 11  1  0
 20 13  1  0
 21 19  2  0
 22 20  2  0
 14 17  2  0
  3  7  1  0
 11 13  1  0
 21 22  1  0
M  END

> <chembl_id>
CHEMBL6933

> <chembl_pref_name>
None

$$$$

     RDKit          2D

 26 28  0  0  0  0  0  0  0  0999 V2000
    3.9042   -4.3125    0.0000 N   0  0  0  0  0  0  0  0  0  0  0  0
    3.3792   -4.0042    0.0000 C   0  0  0  0  0  0  0  0  0  0  0  0
    2.8667   -4.3125    0.0000 N   0  0  0  0  0  0  0  0  0  0  0  0
    3.9042   -4.9167    0.0000 C   0  0  0  0  0  0  0  0  0  0  0  0
    3.3792   -5.2167    0.0000 N   0  0  0  0  0  0  0  0  0  0  0  0
    2.8667   -4.9167    0.0000 C   0  0  0  0  0  0  0  0  0  0  0  0
    4.4167   -4.0042    0.0000 C   0  0  0  0  0  0  0  0  0  0  0  0
    4.4125   -3.4125    0.0000 C   0  0  0  0  0  0  0  0  0  0  0  0
    3.3792   -3.4125    0.0000 N   0  0  0  0  0  0  0  0  0  0  0  0
    2.3417   -5.2167    0.0000 N   0  0  0  0  0  0  0  0  0  0  0  0
    4.5042   -4.9167    0.0000 C   0  0  0  0  0  0  0  0  0  0  0  0
    4.0542   -5.4917    0.0000 C   0  0  0  0  0  0  0  0  0  0  0  0
    4.9292   -3.1042    0.0000 C   0  0  0  0  0  0  0  0  0  0  0  0
    4.9417   -4.3042    0.0000 C   0  0  0  0  0  0  0  0  0  0  0  0
    5.9500   -0.7000    0.0000 C   0  0  0  0  0  0  0  0  0  0  0  0
    4.9250   -2.5042    0.0000 O   0  0  0  0  0  0  0  0  0  0  0  0
    5.9542   -1.3000    0.0000 O   0  0  0  0  0  0  0  0  0  0  0  0
    5.4542   -4.0042    0.0000 C   0  0  0  0  0  0  0  0  0  0  0  0
    5.4542   -3.4042    0.0000 C   0  0  0  0  0  0  0  0  0  0  0  0
    5.4417   -2.2042    0.0000 C   0  0  0  0  0  0  0  0  0  0  0  0
    5.4375   -1.6042    0.0000 C   0  0  0  0  0  0  0  0  0  0  0  0
    6.4667   -0.4000    0.0000 C   0  0  0  0  0  0  0  0  0  0  0  0
    5.4292   -0.4042    0.0000 C   0  0  0  0  0  0  0  0  0  0  0  0
    5.4167    0.1875    0.0000 C   0  0  0  0  0  0  0  0  0  0  0  0
    6.4625    0.2000    0.0000 C   0  0  0  0  0  0  0  0  0  0  0  0
    5.9417    0.4958    0.0000 C   0  0  0  0  0  0  0  0  0  0  0  0
  2  1  1  0
  3  2  2  0
  4  1  1  0
  5  4  1  0
  6  5  2  0
  7  1  1  0
  8  7  1  0
  9  2  1  0
 10  6  1  0
 11  4  1  0
 12  4  1  0
 13  8  2  0
 14  7  2  0
 15 17  1  0
 16 13  1  0
 17 21  1  0
 18 14  1  0
 19 18  2  0
 20 16  1  0
 21 20  1  0
 22 15  2  0
 23 15  1  0
 24 23  2  0
 25 22  1  0
 26 24  1  0
  3  6  1  0
 13 19  1  0
 25 26  2  0
M  END

> <chembl_id>
CHEMBL266025

> <chembl_pref_name>
None

$$$$

     RDKit          2D

 36 39  0  0  0  0  0  0  0  0999 V2000
    7.4292    0.2000    0.0000 N   0  0  0  0  0  0  0  0  0  0  0  0
    7.0542   -0.2667    0.0000 C   0  0  0  0  0  0  0  0  0  0  0  0
    2.3542   -3.6792    0.0000 N   0  0  0  0  0  0  0  0  0  0  0  0
    2.0042   -4.1667    0.0000 C   0  0  0  0  0  0  0  0  0  0  0  0
    7.3917   -0.7667    0.0000 N   0  0  0  0  0  0  0  0  0  0  0  0
    7.9917   -0.0042    0.0000 C   0  0  0  0  0  0  0  0  0  0  0  0
    2.3542   -4.6542    0.0000 O   0  0  0  0  0  0  0  0  0  0  0  0
    2.9292   -3.8667    0.0000 C   0  0  0  0  0  0  0  0  0  0  0  0
    7.9667   -0.6042    0.0000 O   0  0  0  0  0  0  0  0  0  0  0  0
    2.9292   -4.4667    0.0000 C   0  0  0  0  0  0  0  0  0  0  0  0
   -0.3958   -4.1625    0.0000 C   0  0  0  0  0  0  0  0  0  0  0  0
    6.5917   -1.4292    0.0000 C   0  0  0  0  0  0  0  0  0  0  0  0
    6.3875   -1.9917    0.0000 C   0  0  0  0  0  0  0  0  0  0  0  0
    1.4042   -4.1667    0.0000 C   0  0  0  0  0  0  0  0  0  0  0  0
    7.1875   -1.3292    0.0000 C   0  0  0  0  0  0  0  0  0  0  0  0
    0.2042   -4.1667    0.0000 C   0  0  0  0  0  0  0  0  0  0  0  0
    6.4542   -0.2417    0.0000 O   0  0  0  0  0  0  0  0  0  0  0  0
    5.9042   -2.3500    0.0000 C   0  0  0  0  0  0  0  0  0  0  0  0
    8.4917    0.3333    0.0000 O   0  0  0  0  0  0  0  0  0  0  0  0
    1.1042   -3.6500    0.0000 C   0  0  0  0  0  0  0  0  0  0  0  0
    1.1000   -4.6917    0.0000 C   0  0  0  0  0  0  0  0  0  0  0  0
    0.5042   -3.6500    0.0000 C   0  0  0  0  0  0  0  0  0  0  0  0
    0.5000   -4.6875    0.0000 C   0  0  0  0  0  0  0  0  0  0  0  0
   -0.2375   -3.5875    0.0000 F   0  0  0  0  0  0  0  0  0  0  0  0
   -0.8625   -3.8167    0.0000 F   0  0  0  0  0  0  0  0  0  0  0  0
   -0.7000   -4.6792    0.0000 F   0  0  0  0  0  0  0  0  0  0  0  0
    3.4167   -3.5167    0.0000 C   0  0  0  0  0  0  0  0  0  0  0  0
    5.9667   -2.9417    0.0000 C   0  0  0  0  0  0  0  0  0  0  0  0
    5.3542   -2.1042    0.0000 C   0  0  0  0  0  0  0  0  0  0  0  0
    4.9292   -3.0542    0.0000 C   0  0  0  0  0  0  0  0  0  0  0  0
    5.4792   -3.3000    0.0000 C   0  0  0  0  0  0  0  0  0  0  0  0
    4.8667   -2.4542    0.0000 C   0  0  0  0  0  0  0  0  0  0  0  0
    3.9625   -3.7542    0.0000 C   0  0  0  0  0  0  0  0  0  0  0  0
    4.4500   -3.4042    0.0000 O   0  0  0  0  0  0  0  0  0  0  0  0
    3.4167   -4.8167    0.0000 C   0  0  0  0  0  0  0  0  0  0  0  0
    6.7750   -2.4542    0.0000 C   0  0  0  0  0  0  0  0  0  0  0  0
  2  1  1  0
  3  8  1  0
  4  3  2  0
  5  2  1  0
  6  1  1  0
  7 10  1  0
  8 27  1  0
  9  6  1  0
 10  8  2  0
 11 16  1  0
 12 15  1  0
 13 12  2  0
 14  4  1  0
 15  5  1  0
 16 23  1  0
 17  2  2  0
 18 13  1  0
 19  6  2  0
 20 14  2  0
 21 14  1  0
 22 20  1  0
 23 21  2  0
 24 11  1  0
 25 11  1  0
 26 11  1  0
 27 33  1  0
 28 18  2  0
 29 18  1  0
 30 32  1  0
 31 28  1  0
 32 29  2  0
 33 34  1  0
 34 30  1  0
 35 10  1  0
 36 13  1  0
  9  5  1  0
 31 30  2  0
  7  4  1  0
 16 22  2  0
M  END

> <chembl_id>
CHEMBL6637

> <chembl_pref_name>
None

$$$$
